14
r-2-chlorobutane_out_G09.xyz_operated ---> r-2-chlorobutane_out_G09.xyz_oper_output.xyzMolecule rotated
H    -3.15131       -0.016905      0.38176        
H    -2.38118       0.178062       -1.20059       
C    -2.21302       0.245815       -0.118747      
H    -1.98052       1.28753        0.121206       
H    -1.36649       -1.72989       0.104815       
C    -1.08647       -0.689227      0.325749       
H    -0.945926      -0.628673      1.41244        
H    0.127535       -0.409984      -1.44371       
C    0.259559       -0.450548      -0.358387      
Cl   0.90003        1.22561        0.069226       
H    0.977845       -2.47971       -0.301201      
C    1.3171         -1.48337       0.009142       
H    1.48884        -1.49915       1.09039        
H    2.26766        -1.27274       -0.488497      
