5
r-enan_out_G09_invertion.xyz ---> r-enan_out_G09_invertion_output.xyzMolecule invertion
Br   -2.03494       0.382615       0.032452       
F    -0.552022      -1.97565       0.225805       
H    -0.495143      -0.904524      -1.51586       
C    -0.460954      -0.769684      -0.43871       
I    1.49909        0.187018       0.018492       
