62
Tetrabenzoporphyrin_rotated.xyz ---> Tetrabenzoporphyrin_rotated_output.xyzMolecule B
H    -7.64419       -1.24462       -4.28519e-12   
H    -7.64419       1.24462        4.28519e-12    
C    -6.70585       -0.70591       -7.24061e-14   
C    -6.70585       0.70591        7.24061e-14    
C    -5.4917        -1.41501       -1.66845e-12   
C    -5.4917        1.41501        1.66845e-12    
H    -5.4868        -2.49618       -6.12399e-13   
H    -5.4868        2.49618        6.12399e-13    
C    -4.30262       -0.68532       2.16527e-13    
C    -4.30262       0.68532        -2.16527e-13   
H    -3.21793       -3.21782       -2.19791e-12   
H    -3.21793       3.21782        2.19791e-12    
C    -2.89957       -1.10343       -4.48507e-12   
C    -2.89957       1.10343        4.48507e-12    
H    -2.49751       -5.40652       4.23297e-12    
H    -2.49751       5.40652        -4.23297e-12   
C    -2.45081       -2.45264       7.29036e-13    
C    -2.45081       2.45264        -7.29036e-13   
N    -2.11177       0              0              
C    -1.4162        -5.40436       -1.64444e-12   
C    -1.4162        5.40436        1.64444e-12    
H    -1.24413       -7.55659       4.65692e-11    
H    -1.24413       7.55659        -4.65692e-11   
C    -1.09559       -2.88682       -1.37534e-12   
C    -1.09559       2.88682        1.37534e-12    
C    -0.7058        -6.61775       -1.74054e-12   
C    -0.7058        6.61775        1.74054e-12    
C    -0.68678       -4.21163       3.83791e-14    
C    -0.68678       4.21163        -3.83791e-14   
N    -2.26132e-16   -2.0873        -5.92049e-13   
H    -2.26132e-16   -1.05966       1.69349e-12    
H    -2.26132e-16   1.05966        -1.69349e-12   
N    -2.26132e-16   2.0873         5.92049e-13    
C    0.68678        -4.21163       3.83791e-14    
C    0.68678        4.21163        -3.83791e-14   
C    0.7058         -6.61775       -1.74054e-12   
C    0.7058         6.61775        1.74054e-12    
C    1.09559        -2.88682       -1.37534e-12   
C    1.09559        2.88682        1.37534e-12    
H    1.24413        -7.55659       4.65692e-11    
H    1.24413        7.55659        -4.65692e-11   
C    1.4162         -5.40436       -1.64444e-12   
C    1.4162         5.40436        1.64444e-12    
N    2.11177        0              0              
C    2.45081        -2.45264       7.29036e-13    
C    2.45081        2.45264        -7.29036e-13   
H    2.49751        -5.40652       4.23297e-12    
H    2.49751        5.40652        -4.23297e-12   
C    2.89957        -1.10343       -4.48507e-12   
C    2.89957        1.10343        4.48507e-12    
H    3.21793        -3.21782       -2.19791e-12   
H    3.21793        3.21782        2.19791e-12    
C    4.30262        -0.68532       2.16527e-13    
C    4.30262        0.68532        -2.16527e-13   
H    5.4868         -2.49618       -6.12399e-13   
H    5.4868         2.49618        6.12399e-13    
C    5.4917         -1.41501       -1.66845e-12   
C    5.4917         1.41501        1.66845e-12    
C    6.70585        -0.70591       -7.24061e-14   
C    6.70585        0.70591        7.24061e-14    
H    7.64419        -1.24462       -4.28519e-12   
H    7.64419        1.24462        4.28519e-12    
