62
Tetrabenzoporphyrin.xyz ---> Tetrabenzoporphyrin_output.xyzMolecule A
H    -7.64419       -1.24462       0              
H    -7.64419       1.24462        0              
C    -6.70585       -0.70591       0              
C    -6.70585       0.70591        0              
C    -5.4917        -1.41501       0              
C    -5.4917        1.41501        0              
H    -5.4868        -2.49618       0              
H    -5.4868        2.49618        0              
C    -4.30262       -0.68532       0              
C    -4.30262       0.68532        0              
H    -3.21793       -3.21782       0              
H    -3.21793       3.21782        0              
C    -2.89957       -1.10343       0              
C    -2.89957       1.10343        0              
H    -2.49751       -5.40652       0              
H    -2.49751       5.40652        0              
C    -2.45081       -2.45264       0              
C    -2.45081       2.45264        0              
N    -2.11177       0              0              
C    -1.4162        -5.40436       0              
C    -1.4162        5.40436        0              
H    -1.24413       -7.55659       0              
H    -1.24413       7.55659        0              
C    -1.09559       -2.88682       0              
C    -1.09559       2.88682        0              
C    -0.7058        -6.61775       0              
C    -0.7058        6.61775        0              
C    -0.68678       -4.21163       0              
C    -0.68678       4.21163        0              
N    -2.26132e-16   -2.0873        0              
H    -2.26132e-16   -1.05966       0              
H    -2.26132e-16   1.05966        0              
N    -2.26132e-16   2.0873         0              
C    0.68678        -4.21163       0              
C    0.68678        4.21163        0              
C    0.7058         -6.61775       0              
C    0.7058         6.61775        0              
C    1.09559        -2.88682       0              
C    1.09559        2.88682        0              
H    1.24413        -7.55659       0              
H    1.24413        7.55659        0              
C    1.4162         -5.40436       0              
C    1.4162         5.40436        0              
N    2.11177        0              0              
C    2.45081        -2.45264       0              
C    2.45081        2.45264        0              
H    2.49751        -5.40652       0              
H    2.49751        5.40652        0              
C    2.89957        -1.10343       0              
C    2.89957        1.10343        0              
H    3.21793        -3.21782       0              
H    3.21793        3.21782        0              
C    4.30262        -0.68532       0              
C    4.30262        0.68532        0              
H    5.4868         -2.49618       0              
H    5.4868         2.49618        0              
C    5.4917         -1.41501       0              
C    5.4917         1.41501        0              
C    6.70585        -0.70591       0              
C    6.70585        0.70591        0              
H    7.64419        -1.24462       0              
H    7.64419        1.24462        0              
