24
R-S-R-Fructuose_output.xyz ---> R-S-R-Fructuose_output_output.xyzMolecule B
H    -3.82259       -2.3081        0.309586       
O    -3.71567       -1.36357       0.104247       
O    -3.0205        1.15395        -0.424475      
C    -2.32968       -1.10464       0.00416748     
C    -2.08667       0.35773        -0.316249      
H    -1.91758       -1.72598       -0.793998      
H    -1.85959       -1.35105       0.959631       
C    -0.633314      0.804593       -0.463702      
H    -0.545507      1.27675        -1.44806       
O    -0.371697      1.81222        0.505309       
H    -0.187383      2.64059        0.02985        
H    -0.0409744     -1.79171       0.881659       
O    0.186351       -0.853116      0.991309       
H    0.265822       -1.12089       -1.01866       
C    0.418539       -0.303355      -0.302249      
C    1.8848         0.15232        -0.422565      
H    2.07504        0.590485       -1.40867       
O    2.21919        1.00953        0.668617       
H    2.56178        1.84195        0.300778       
H    2.70548        -1.7995        -0.96651       
H    2.77452        -1.43021       0.780641       
C    2.85951        -1.00928       -0.226701      
O    4.18925        -0.524352      -0.383076      
H    4.78578        -1.28027       -0.24814       
