14
r-2-chlorobutane.xyz ---> r-2-chlorobutane_output.xyzMolecule A
H    -2.08873       -1.54832       -0.483172      
H    -1.28717       -1.67131       1.11183        
C    -1.11812       -1.67363       0.0236228      
Cl   -0.90906       1.02143        0.0593442      
H    -0.696089      -2.64807       -0.267177      
C    -0.158294      -0.523028      -0.374973      
H    -0.021171      -0.534372      -1.4686        
H    1.08537        -0.622659      1.4172         
C    1.22049        -0.675867      0.324246       
H    1.64326        -1.6653        0.0784007      
H    1.86976        1.41931        0.150969       
C    2.22866        0.415061       -0.122426      
H    2.37634        0.376648       -1.21308       
H    3.20194        0.251139       0.368141       
