14
s-2-chlorobutane.xyz ---> s-2-chlorobutane_output.xyzMolecule B
H    -3.20184       0.250427       0.368527       
H    -2.37682       0.37578        -1.21239       
C    -2.22873       0.414287       -0.122701      
H    -1.86997       1.41868        0.150253       
H    -1.64232       -1.66527       0.0790335      
C    -1.22031       -0.676225      0.324434       
H    -1.08499       -0.622566      1.4178         
H    0.020855       -0.534862      -1.46858       
C    0.158515       -0.522896      -0.374803      
H    0.696862       -2.648         -0.267206      
Cl   0.908558       1.0216         0.0593427      
C    1.11911        -1.67298       0.0234628      
H    1.28805        -1.67074       1.11141        
H    2.08869        -1.54823       -0.483356      
