5
s-enan_out_G09_invertion.xyz ---> s-enan_out_G09_invertion_output.xyzMolecule invertion
I    -1.49946       0.186931       0.018487       
C    0.461674       -0.769343      -0.438458      
H    0.494776       -0.903713      -1.5157        
F    0.552366       -1.97537       0.225637       
Br   2.03529        0.382594       0.032455       
