20
2,3-dimethyl-butane_out_G09_invertion.xyz ---> 2,3-dimethyl-butane_out_G09_invertion_output.xyzMolecule invertion
H    -1.33456       0.736113       0              
H    -1.32698       -1.48152       -1.342         
H    -1.32698       -1.48152       1.342          
C    -0.232269      -1.50082       -1.25449       
C    -0.232269      -1.50082       1.25449        
C    -0.232269      0.741196       0              
H    -0.184408      1.0823         -2.17558       
H    -0.184408      1.0823         2.17558        
H    -0.074482      2.55219        -1.2044        
H    -0.074482      2.55219        1.2044         
H    0.074482       -2.55219       -1.2044        
H    0.074482       -2.55219       1.2044         
H    0.184408       -1.0823        -2.17558       
H    0.184408       -1.0823        2.17558        
C    0.232269       -0.741196      0              
C    0.232269       1.50082        -1.25449       
C    0.232269       1.50082        1.25449        
H    1.32698        1.48152        -1.342         
H    1.32698        1.48152        1.342          
H    1.33456        -0.736113      0              
