20
hexane_out_G09_invertion.xyz ---> hexane_out_G09_invertion_output.xyzMolecule invertion
H    -2.43528       -3.30453       0              
H    -1.96652       -1.00444       -0.877831      
H    -1.96652       -1.00444       0.877831       
C    -1.4156        -2.90295       0              
C    -1.4156        -1.37108       0              
H    -0.90154       -3.29906       -0.884491      
H    -0.90154       -3.29906       0.884491       
H    -0.54579       1.13461        -0.878321      
H    -0.54579       1.13461        0.878321       
C    -0.005695      -0.766748      0              
C    0.005695       0.766748       0              
H    0.54579        -1.13461       -0.878321      
H    0.54579        -1.13461       0.878321       
H    0.90154        3.29906        -0.884491      
H    0.90154        3.29906        0.884491       
C    1.4156         1.37108        0              
C    1.4156         2.90295        0              
H    1.96652        1.00444        -0.877831      
H    1.96652        1.00444        0.877831       
H    2.43528        3.30453        0              
