19
test-S_out_G09.xyz_operated ---> test-S_out_G09.xyz_oper_align.xyzMolecule rotated
H    1.2352         -0.817204      -3.01266       
O    0.759387       -0.270306      -2.3808        
H    2.20636        -2.39553       -1.50791       
H    -0.225906      -1.84739       -1.46534       
C    0.507629       -1.06485       -1.2206        
H    0.637181       1.65283        -0.994335      
C    1.79827        -1.73632       -0.733376      
H    2.54579        -0.976424      -0.493178      
C    0.0847307      1.21072        -0.175663      
C    -0.100344      -0.17291       -0.154569      
H    1.61759        -2.34019       0.15908        
H    -0.302869      3.08256        0.803856       
C    -0.450392      2.00846        0.834348       
C    -0.837118      -0.741047      0.889034       
H    -1.00302       -1.81426       0.90854        
C    -1.17566       1.43488        1.87576        
C    -1.36912       0.054675       1.89975        
H    -1.59295       2.05747        2.6593         
H    -1.9405        -0.401061      2.70096        
