19
test-S_out_G09_X_0_Y_0_Z_90.xyz ---> test-S_out_G09_X_0_Y_0_Z_90_align.xyzMolecule B
H    -3.67441913613     -0.231479058793    0.259214814808     
H    -2.6805093804      1.94690524019      -0.399342432585    
C    -2.60089213323     -0.136114226039    0.140387362498     
H    -2.1986322107      -2.19284077573     0.623746395841     
C    -2.04252861654     1.08691052851      -0.227608399689    
C    -1.77112006538     -1.23559475198     0.345727855381     
C    -0.664441268725    1.20436790555      -0.385145960234    
C    -0.391008731513    -1.11644166462     0.190906945898     
H    -0.238545612755    2.15772574023      -0.684174752833    
C    0.175248877644     0.107037822666     -0.171816036078    
H    0.256799953777     -1.97099070578     0.335759490928     
C    1.67757424548      0.270329848892     -0.30582936524     
H    1.85412135714      1.91035404999      1.12288050323      
H    1.87132554167      0.914222845998     -1.17658134095     
H    2.11978915004      0.298433586082     1.81424809836      
O    2.25098281768      -1.0185175483      -0.531259222406    
C    2.29233068866      0.926855130119     0.937181820753     
H    3.20746266977      -0.920540684639    -0.514238561285    
H    3.37263063429      1.05931520059      0.809166131038     
