19
test-S_out_G09_X_90_Y_0_Z_270.xyz ---> test-S_out_G09_X_90_Y_0_Z_270_align.xyzMolecule B
H    -1.05931520059     3.37263063429      0.809166131038     
H    0.920540684639     3.20746266977      -0.514238561285    
C    -0.926855130119    2.29233068866      0.937181820753     
O    1.0185175483       2.25098281768      -0.531259222406    
H    -0.298433586082    2.11978915004      1.81424809836      
H    -0.914222845998    1.87132554167      -1.17658134095     
H    -1.91035404999     1.85412135714      1.12288050323      
C    -0.270329848892    1.67757424548      -0.30582936524     
H    1.97099070578      0.256799953777     0.335759490928     
C    -0.107037822666    0.175248877644     -0.171816036078    
H    -2.15772574023     -0.238545612755    -0.684174752833    
C    1.11644166462      -0.391008731513    0.190906945898     
C    -1.20436790555     -0.664441268725    -0.385145960234    
C    1.23559475198      -1.77112006538     0.345727855381     
C    -1.08691052851     -2.04252861654     -0.227608399689    
H    2.19284077573      -2.1986322107      0.623746395841     
C    0.136114226039     -2.60089213323     0.140387362498     
H    -1.94690524019     -2.6805093804      -0.399342432585    
H    0.231479058793     -3.67441913613     0.259214814808     
