# 1 E = -18.19139005596847
 OpenBabel06261319083D

  8 18  0  0  0  0  0  0  0  0999 V2000
   -0.1765   -2.2896    0.9056 Ni  0  0  0  0  0  0  0  0  0  0  0  0
   -0.7354    0.0856    1.3355 Ni  0  0  0  0  0  0  0  0  0  0  0  0
   -2.0097   -1.1900   -0.3639 Ni  0  0  0  0  0  0  0  0  0  0  0  0
    1.6175    0.7117   -1.5199 Ni  0  0  0  0  0  0  0  0  0  0  0  0
    0.2596   -1.3503   -1.3452 Ni  0  0  0  0  0  0  0  0  0  0  0  0
    1.5553   -0.5454    0.6142 Ni  0  0  0  0  0  0  0  0  0  0  0  0
    0.8443    1.8274    0.5631 Ni  0  0  0  0  0  0  0  0  0  0  0  0
   -0.8039    0.8697   -1.0195 Ni  0  0  0  0  0  0  0  0  0  0  0  0
  1  2  1  0  0  0  0
  3  1  1  0  0  0  0
  3  2  1  0  0  0  0
  4  5  1  0  0  0  0
  4  8  1  0  0  0  0
  4  7  1  0  0  0  0
  4  6  1  0  0  0  0
  5  8  1  0  0  0  0
  5  3  1  0  0  0  0
  5  6  1  0  0  0  0
  5  1  1  0  0  0  0
  6  1  1  0  0  0  0
  6  2  1  0  0  0  0
  7  6  1  0  0  0  0
  7  2  1  0  0  0  0
  8  3  1  0  0  0  0
  8  7  1  0  0  0  0
  8  2  1  0  0  0  0
M  END
$$$$
# 2 E = -18.041548940218466
 OpenBabel06261319083D

  8 18  0  0  0  0  0  0  0  0999 V2000
    1.0637   -0.0560   -2.0120 Ni  0  0  2  0  0  0  0  0  0  0  0  0
    1.1051   -2.0236   -0.5126 Ni  0  0  0  0  0  0  0  0  0  0  0  0
    1.5623   -1.3717    1.8300 Ni  0  0  0  0  0  0  0  0  0  0  0  0
    0.5030    0.2769    0.3682 Ni  0  0  0  0  0  0  0  0  0  0  0  0
   -1.9523    0.3311    0.6100 Ni  0  0  2  0  0  0  0  0  0  0  0  0
   -1.0731   -1.0906   -1.2430 Ni  0  0  0  0  0  0  0  0  0  0  0  0
   -0.8688    1.3787   -1.3725 Ni  0  0  1  0  0  0  0  0  0  0  0  0
   -0.7716   -1.7828    1.1189 Ni  0  0  0  0  0  0  0  0  0  0  0  0
  1  7  1  0  0  0  0
  1  6  1  1  0  0  0
  1  2  1  0  0  0  0
  1  4  1  0  0  0  0
  2  4  1  0  0  0  0
  2  8  1  0  0  0  0
  2  3  1  0  0  0  0
  4  5  1  0  0  0  0
  4  8  1  0  0  0  0
  4  3  1  0  0  0  0
  5  6  1  6  0  0  0
  5  8  1  0  0  0  0
  6  2  1  0  0  0  0
  6  8  1  0  0  0  0
  7  6  1  1  0  0  0
  7  4  1  0  0  0  0
  7  5  1  0  0  0  0
  8  3  1  0  0  0  0
M  END
$$$$
# 3 E = -17.838956566611314
 OpenBabel06261319083D

  8 18  0  0  0  0  0  0  0  0999 V2000
   -0.7006   -2.4853    1.8186 Ni  0  0  0  0  0  0  0  0  0  0  0  0
    2.1381   -0.1458   -1.4489 Ni  0  0  0  0  0  0  0  0  0  0  0  0
   -2.0073   -0.9724   -1.9376 Ni  0  0  0  0  0  0  0  0  0  0  0  0
   -1.0707   -2.8323   -0.5974 Ni  0  0  0  0  0  0  0  0  0  0  0  0
   -1.6377   -0.6298    0.4869 Ni  0  0  0  0  0  0  0  0  0  0  0  0
    0.3533   -1.6587   -2.2365 Ni  0  0  0  0  0  0  0  0  0  0  0  0
   -0.2138    0.5438   -1.1521 Ni  0  0  0  0  0  0  0  0  0  0  0  0
    0.7540   -1.3200    0.2124 Ni  0  0  0  0  0  0  0  0  0  0  0  0
  2  7  1  0  0  0  0
  2  8  1  0  0  0  0
  3  7  1  0  0  0  0
  3  4  1  0  0  0  0
  3  5  1  0  0  0  0
  4  8  1  0  0  0  0
  4  5  1  0  0  0  0
  4  1  1  0  0  0  0
  5  1  1  0  0  0  0
  6  3  1  0  0  0  0
  6  2  1  0  0  0  0
  6  7  1  0  0  0  0
  6  4  1  0  0  0  0
  6  8  1  0  0  0  0
  7  8  1  0  0  0  0
  7  5  1  0  0  0  0
  8  5  1  0  0  0  0
  8  1  1  0  0  0  0
M  END
$$$$
# 4 E = -17.824440930432109
 OpenBabel06261319083D

  8 18  0  0  0  0  0  0  0  0999 V2000
    0.7034   -0.9815    1.4042 Ni  0  0  0  0  0  0  0  0  0  0  0  0
   -0.8542   -0.8691   -0.5044 Ni  0  0  0  0  0  0  0  0  0  0  0  0
    3.1249   -1.0712    0.9450 Ni  0  0  0  0  0  0  0  0  0  0  0  0
    1.5671   -0.9588   -0.9637 Ni  0  0  0  0  0  0  0  0  0  0  0  0
    0.3664    1.1544   -1.3814 Ni  0  0  0  0  0  0  0  0  0  0  0  0
   -2.0551    1.2442   -0.9221 Ni  0  0  0  0  0  0  0  0  0  0  0  0
    1.9240    1.0420    0.5272 Ni  0  0  0  0  0  0  0  0  0  0  0  0
   -0.4972    1.1317    0.9865 Ni  0  0  0  0  0  0  0  0  0  0  0  0
  2  8  1  0  0  0  0
  2  1  1  0  0  0  0
  3  1  1  0  0  0  0
  4  2  1  0  0  0  0
  4  7  1  0  0  0  0
  4  3  1  0  0  0  0
  4  1  1  0  0  0  0
  5  4  1  0  0  0  0
  5  6  1  0  0  0  0
  5  2  1  0  0  0  0
  5  7  1  0  0  0  0
  5  8  1  0  0  0  0
  6  2  1  0  0  0  0
  6  8  1  0  0  0  0
  7  3  1  0  0  0  0
  7  8  1  0  0  0  0
  7  1  1  0  0  0  0
  8  1  1  0  0  0  0
M  END
$$$$
# 5 E = -17.739012106482137
 OpenBabel06261319083D

  8 18  0  0  0  0  0  0  0  0999 V2000
   -0.3993   -1.4507   -0.8672 Ni  0  0  0  0  0  0  0  0  0  0  0  0
    0.9665    0.5913   -1.0023 Ni  0  0  0  0  0  0  0  0  0  0  0  0
   -1.0711    0.4797    0.5024 Ni  0  0  0  0  0  0  0  0  0  0  0  0
   -0.2990    0.2622    2.8283 Ni  0  0  0  0  0  0  0  0  0  0  0  0
    2.9754    0.4415    0.4102 Ni  0  0  0  0  0  0  0  0  0  0  0  0
    0.9999   -0.8679    1.0708 Ni  0  0  0  0  0  0  0  0  0  0  0  0
    1.0289    1.6572    1.2973 Ni  0  0  0  0  0  0  0  0  0  0  0  0
   -0.3527    2.6072   -0.5032 Ni  0  0  0  0  0  0  0  0  0  0  0  0
  1  3  1  0  0  0  0
  1  6  1  0  0  0  0
  2  1  1  0  0  0  0
  2  8  1  0  0  0  0
  2  5  1  0  0  0  0
  2  3  1  0  0  0  0
  2  6  1  0  0  0  0
  2  7  1  0  0  0  0
  3  6  1  0  0  0  0
  3  7  1  0  0  0  0
  3  4  1  0  0  0  0
  5  6  1  0  0  0  0
  5  7  1  0  0  0  0
  6  7  1  0  0  0  0
  6  4  1  0  0  0  0
  7  4  1  0  0  0  0
  8  3  1  0  0  0  0
  8  7  1  0  0  0  0
M  END
