# -27.033
 OpenBabel06261319063D

  8 18  0  0  0  0  0  0  0  0999 V2000
   -0.1860   -2.2078    0.8188 Ni  0  0  0  0  0  0  0  0  0  0  0  0
   -0.7200    0.0199    1.2274 Ni  0  0  0  0  0  0  0  0  0  0  0  0
   -1.8912   -1.1602   -0.4072 Ni  0  0  0  0  0  0  0  0  0  0  0  0
    1.5646    0.7135   -1.4010 Ni  0  0  0  0  0  0  0  0  0  0  0  0
    0.2683   -1.2640   -1.2700 Ni  0  0  0  0  0  0  0  0  0  0  0  0
    1.4398   -0.5172    0.5794 Ni  0  0  0  0  0  0  0  0  0  0  0  0
    0.7929    1.7200    0.5750 Ni  0  0  0  0  0  0  0  0  0  0  0  0
   -0.7172    0.8150   -0.9524 Ni  0  0  0  0  0  0  0  0  0  0  0  0
  1  2  1  0  0  0  0
  3  1  1  0  0  0  0
  3  2  1  0  0  0  0
  4  5  1  0  0  0  0
  4  8  1  0  0  0  0
  4  7  1  0  0  0  0
  4  6  1  0  0  0  0
  5  8  1  0  0  0  0
  5  3  1  0  0  0  0
  5  6  1  0  0  0  0
  5  1  1  0  0  0  0
  6  1  1  0  0  0  0
  6  2  1  0  0  0  0
  7  6  1  0  0  0  0
  7  2  1  0  0  0  0
  8  3  1  0  0  0  0
  8  7  1  0  0  0  0
  8  2  1  0  0  0  0
M  END
$$$$
# -26.8442
 OpenBabel06261319063D

  8 18  0  0  0  0  0  0  0  0999 V2000
    0.9754   -0.1350   -1.9819 Ni  0  0  2  0  0  0  0  0  0  0  0  0
    1.1276   -1.8914   -0.4499 Ni  0  0  0  0  0  0  0  0  0  0  0  0
    1.4441   -1.2696    1.7193 Ni  0  0  0  0  0  0  0  0  0  0  0  0
    0.4705    0.2821    0.3113 Ni  0  0  0  0  0  0  0  0  0  0  0  0
   -1.8755    0.2577    0.5578 Ni  0  0  2  0  0  0  0  0  0  0  0  0
   -1.0114   -1.0936   -1.1636 Ni  0  0  0  0  0  0  0  0  0  0  0  0
   -0.8518    1.1998   -1.3329 Ni  0  0  1  0  0  0  0  0  0  0  0  0
   -0.7107   -1.6880    1.1269 Ni  0  0  0  0  0  0  0  0  0  0  0  0
  1  7  1  0  0  0  0
  1  6  1  1  0  0  0
  1  2  1  0  0  0  0
  1  4  1  0  0  0  0
  2  4  1  0  0  0  0
  2  8  1  0  0  0  0
  2  3  1  0  0  0  0
  4  5  1  0  0  0  0
  4  8  1  0  0  0  0
  4  3  1  0  0  0  0
  5  6  1  6  0  0  0
  5  8  1  0  0  0  0
  6  2  1  0  0  0  0
  6  8  1  0  0  0  0
  7  6  1  1  0  0  0
  7  4  1  0  0  0  0
  7  5  1  0  0  0  0
  8  3  1  0  0  0  0
M  END
$$$$
# -26.8788
 OpenBabel06261319063D

  8 18  0  0  0  0  0  0  0  0999 V2000
   -0.5671   -2.4069    1.6823 Ni  0  0  0  0  0  0  0  0  0  0  0  0
    2.0030   -0.2220   -1.3426 Ni  0  0  0  0  0  0  0  0  0  0  0  0
   -1.9834   -0.9927   -1.8843 Ni  0  0  0  0  0  0  0  0  0  0  0  0
   -1.0366   -2.7074   -0.5798 Ni  0  0  0  0  0  0  0  0  0  0  0  0
   -1.5770   -0.7306    0.4131 Ni  0  0  0  0  0  0  0  0  0  0  0  0
    0.2816   -1.5554   -2.1637 Ni  0  0  0  0  0  0  0  0  0  0  0  0
   -0.2442    0.4176   -1.1676 Ni  0  0  0  0  0  0  0  0  0  0  0  0
    0.7391   -1.3030    0.1879 Ni  0  0  0  0  0  0  0  0  0  0  0  0
  2  7  1  0  0  0  0
  2  8  1  0  0  0  0
  3  7  1  0  0  0  0
  3  4  1  0  0  0  0
  3  5  1  0  0  0  0
  4  8  1  0  0  0  0
  4  5  1  0  0  0  0
  4  1  1  0  0  0  0
  5  1  1  0  0  0  0
  6  3  1  0  0  0  0
  6  2  1  0  0  0  0
  6  7  1  0  0  0  0
  6  4  1  0  0  0  0
  6  8  1  0  0  0  0
  7  8  1  0  0  0  0
  7  5  1  0  0  0  0
  8  5  1  0  0  0  0
  8  1  1  0  0  0  0
M  END
$$$$
# E = -26.59677
 OpenBabel06261319063D

  8 18  0  0  0  0  0  0  0  0999 V2000
    0.7503   -0.9125    1.3200 Ni  0  0  0  0  0  0  0  0  0  0  0  0
   -0.7818   -0.8129   -0.4598 Ni  0  0  0  0  0  0  0  0  0  0  0  0
    3.0384   -0.9849    0.8852 Ni  0  0  0  0  0  0  0  0  0  0  0  0
    1.5321   -0.8849   -0.8890 Ni  0  0  0  0  0  0  0  0  0  0  0  0
    0.3195    1.0855   -1.2972 Ni  0  0  0  0  0  0  0  0  0  0  0  0
   -1.9686    1.1579   -0.8623 Ni  0  0  0  0  0  0  0  0  0  0  0  0
    1.8516    0.9859    0.4827 Ni  0  0  0  0  0  0  0  0  0  0  0  0
   -0.4622    1.0578    0.9118 Ni  0  0  0  0  0  0  0  0  0  0  0  0
  2  8  1  0  0  0  0
  2  1  1  0  0  0  0
  3  1  1  0  0  0  0
  4  2  1  0  0  0  0
  4  7  1  0  0  0  0
  4  3  1  0  0  0  0
  4  1  1  0  0  0  0
  5  4  1  0  0  0  0
  5  6  1  0  0  0  0
  5  2  1  0  0  0  0
  5  7  1  0  0  0  0
  5  8  1  0  0  0  0
  6  2  1  0  0  0  0
  6  8  1  0  0  0  0
  7  3  1  0  0  0  0
  7  8  1  0  0  0  0
  7  1  1  0  0  0  0
  8  1  1  0  0  0  0
M  END
$$$$
# -26.2525
 OpenBabel06261319063D

  8 18  0  0  0  0  0  0  0  0999 V2000
   -0.2599   -1.3209   -0.7220 Ni  0  0  0  0  0  0  0  0  0  0  0  0
    0.9786    0.5850   -0.9871 Ni  0  0  0  0  0  0  0  0  0  0  0  0
   -1.0544    0.4707    0.4432 Ni  0  0  0  0  0  0  0  0  0  0  0  0
   -0.2820    0.3061    2.5848 Ni  0  0  0  0  0  0  0  0  0  0  0  0
    2.7392    0.4408    0.4562 Ni  0  0  0  0  0  0  0  0  0  0  0  0
    1.0027   -0.8687    1.1206 Ni  0  0  0  0  0  0  0  0  0  0  0  0
    1.0034    1.6796    1.2854 Ni  0  0  0  0  0  0  0  0  0  0  0  0
   -0.2791    2.4279   -0.4449 Ni  0  0  0  0  0  0  0  0  0  0  0  0
  1  3  1  0  0  0  0
  1  6  1  0  0  0  0
  2  1  1  0  0  0  0
  2  8  1  0  0  0  0
  2  3  1  0  0  0  0
  2  5  1  0  0  0  0
  2  6  1  0  0  0  0
  2  7  1  0  0  0  0
  3  6  1  0  0  0  0
  3  7  1  0  0  0  0
  3  4  1  0  0  0  0
  5  6  1  0  0  0  0
  5  7  1  0  0  0  0
  6  7  1  0  0  0  0
  6  4  1  0  0  0  0
  7  4  1  0  0  0  0
  8  3  1  0  0  0  0
  8  7  1  0  0  0  0
M  END
