Individuo 1 F= -.31278003E+02 E0= -.31205745E+02 d E =-.106409E-03
 OpenBabel06111312113D

  9 21  0  0  0  0  0  0  0  0999 V2000
   -0.4234   -0.1578   -1.7976 Ni  0  0  0  0  0  0  0  0  0  0  0  0
   -2.0396    0.4785   -0.2723 Ni  0  0  2  0  0  0  0  0  0  0  0  0
    1.4478    1.2952   -1.6033 Ni  0  0  0  0  0  0  0  0  0  0  0  0
    1.5071   -0.8630   -0.5545 Ni  0  0  0  0  0  0  0  0  0  0  0  0
    1.0340    2.8721    0.0370 Ni  0  0  1  0  0  0  0  0  0  0  0  0
   -0.7597    2.1587   -1.2674 Ni  0  0  0  0  0  0  0  0  0  0  0  0
    0.1226    0.7939    0.5154 Ni  0  0  0  0  0  0  0  0  0  0  0  0
   -0.6551   -1.3666    0.1637 Ni  0  0  1  0  0  0  0  0  0  0  0  0
    2.4335    1.0180    0.4670 Ni  0  0  1  0  0  0  0  0  0  0  0  0
  1  3  1  0  0  0  0
  1  6  1  0  0  0  0
  1  4  1  0  0  0  0
  2  1  1  6  0  0  0
  2  8  1  0  0  0  0
  2  7  1  0  0  0  0
  3  6  1  0  0  0  0
  3  4  1  0  0  0  0
  4  8  1  0  0  0  0
  4  9  1  0  0  0  0
  4  7  1  0  0  0  0
  5  3  1  6  0  0  0
  5  9  1  0  0  0  0
  5  7  1  0  0  0  0
  6  2  1  0  0  0  0
  6  5  1  0  0  0  0
  6  7  1  0  0  0  0
  8  1  1  6  0  0  0
  8  7  1  0  0  0  0
  9  3  1  6  0  0  0
  9  7  1  0  0  0  0
M  END
$$$$
Individuo 2 F= -.31238902E+02 E0= -.31137206E+02 d E =-.916491E-04
 OpenBabel06111312113D

  9 21  0  0  0  0  0  0  0  0999 V2000
   -0.4912   -1.5104    1.5579 Ni  0  0  0  0  0  0  0  0  0  0  0  0
    1.5807   -1.2822    2.6807 Ni  0  0  0  0  0  0  0  0  0  0  0  0
    0.8016    1.9531    0.2771 Ni  0  0  0  0  0  0  0  0  0  0  0  0
    1.4498   -1.8586    0.4083 Ni  0  0  0  0  0  0  0  0  0  0  0  0
    1.0298   -0.0263   -0.9827 Ni  0  0  0  0  0  0  0  0  0  0  0  0
    2.2537    0.2500    0.9997 Ni  0  0  0  0  0  0  0  0  0  0  0  0
   -0.5628   -1.7633   -0.7988 Ni  0  0  0  0  0  0  0  0  0  0  0  0
   -0.9082    0.3343    0.1736 Ni  0  0  0  0  0  0  0  0  0  0  0  0
    0.3003    0.6053    2.1451 Ni  0  0  0  0  0  0  0  0  0  0  0  0
  1  9  1  0  0  0  0
  1  2  1  0  0  0  0
  3  6  1  0  0  0  0
  3  9  1  0  0  0  0
  4  6  1  0  0  0  0
  4  1  1  0  0  0  0
  4  2  1  0  0  0  0
  5  7  1  0  0  0  0
  5  8  1  0  0  0  0
  5  3  1  0  0  0  0
  5  4  1  0  0  0  0
  5  6  1  0  0  0  0
  6  9  1  0  0  0  0
  6  2  1  0  0  0  0
  7  8  1  0  0  0  0
  7  4  1  0  0  0  0
  7  1  1  0  0  0  0
  8  3  1  0  0  0  0
  8  1  1  0  0  0  0
  8  9  1  0  0  0  0
  9  2  1  0  0  0  0
M  END
$$$$
Individuo 3 F= -.31192512E+02 E0= -.31134734E+02 d E =-.626390E-04
 OpenBabel06111312113D

  9 21  0  0  0  0  0  0  0  0999 V2000
    0.1577   -1.1948   -0.3090 Ni  0  0  0  0  0  0  0  0  0  0  0  0
   -1.4476   -2.4809   -1.4069 Ni  0  0  2  0  0  0  0  0  0  0  0  0
   -0.1402   -0.9903   -2.6110 Ni  0  0  1  0  0  0  0  0  0  0  0  0
   -0.6089   -0.6020    1.8054 Ni  0  0  2  0  0  0  0  0  0  0  0  0
   -1.5703    1.3234    0.9227 Ni  0  0  1  0  0  0  0  0  0  0  0  0
   -2.1207   -0.7550    0.0203 Ni  0  0  0  0  0  0  0  0  0  0  0  0
   -2.4095   -0.5581   -2.2876 Ni  0  0  2  0  0  0  0  0  0  0  0  0
   -0.8092    0.7412   -1.1983 Ni  0  0  0  0  0  0  0  0  0  0  0  0
    0.6960    0.8860    0.5819 Ni  0  0  1  0  0  0  0  0  0  0  0  0
  1  6  1  0  0  0  0
  1  9  1  0  0  0  0
  2  1  1  6  0  0  0
  2  6  1  0  0  0  0
  3  7  1  0  0  0  0
  3  2  1  0  0  0  0
  3  8  1  6  0  0  0
  3  1  1  0  0  0  0
  4  1  1  1  0  0  0
  5  8  1  1  0  0  0
  5  4  1  0  0  0  0
  6  5  1  0  0  0  0
  6  4  1  0  0  0  0
  7  2  1  0  0  0  0
  7  8  1  6  0  0  0
  7  6  1  0  0  0  0
  8  1  1  0  0  0  0
  8  6  1  0  0  0  0
  9  8  1  6  0  0  0
  9  5  1  0  0  0  0
  9  4  1  0  0  0  0
M  END
$$$$
Individuo 4 F= -.30914149E+02 E0= -.30836066E+02 d E =-.621093E-04
 OpenBabel06111312113D

  9 21  0  0  0  0  0  0  0  0999 V2000
    1.7202    1.0267    0.3168 Ni  0  0  0  0  0  0  0  0  0  0  0  0
    1.4527    1.1191    2.6062 Ni  0  0  2  0  0  0  0  0  0  0  0  0
    1.1291   -0.9287   -0.8563 Ni  0  0  0  0  0  0  0  0  0  0  0  0
   -0.6993   -1.5360    0.4433 Ni  0  0  0  0  0  0  0  0  0  0  0  0
   -1.0119   -0.8861   -1.7794 Ni  0  0  0  0  0  0  0  0  0  0  0  0
    0.0262    2.3968    1.2392 Ni  0  0  1  0  0  0  0  0  0  0  0  0
    1.3300   -0.9625    1.4934 Ni  0  0  0  0  0  0  0  0  0  0  0  0
   -0.5109    0.7420   -0.2834 Ni  0  0  0  0  0  0  0  0  0  0  0  0
   -0.5981    0.2570    1.9944 Ni  0  0  0  0  0  0  0  0  0  0  0  0
  1  6  1  0  0  0  0
  1  7  1  0  0  0  0
  2  1  1  6  0  0  0
  3  8  1  0  0  0  0
  3  1  1  0  0  0  0
  3  4  1  0  0  0  0
  3  7  1  0  0  0  0
  4  7  1  0  0  0  0
  4  9  1  0  0  0  0
  5  3  1  0  0  0  0
  5  8  1  0  0  0  0
  5  4  1  0  0  0  0
  6  8  1  6  0  0  0
  6  9  1  0  0  0  0
  6  2  1  0  0  0  0
  7  9  1  0  0  0  0
  7  2  1  0  0  0  0
  8  1  1  0  0  0  0
  8  4  1  0  0  0  0
  8  9  1  0  0  0  0
  9  2  1  0  0  0  0
M  END
$$$$
Individuo 5 F= -.31147705E+02 E0= -.31103658E+02 d E =-.958463E-04
 OpenBabel06111312113D

  9 20  0  0  0  0  0  0  0  0999 V2000
   -0.2964   -1.7520    2.5746 Ni  0  0  2  0  0  0  0  0  0  0  0  0
    0.7387    0.0986    1.5632 Ni  0  0  0  0  0  0  0  0  0  0  0  0
   -0.4208   -0.2808   -0.4519 Ni  0  0  0  0  0  0  0  0  0  0  0  0
    1.6190   -0.9945   -1.3290 Ni  0  0  1  0  0  0  0  0  0  0  0  0
   -0.1687   -2.4823   -1.4480 Ni  0  0  0  0  0  0  0  0  0  0  0  0
   -1.3833   -2.1677    0.5308 Ni  0  0  0  0  0  0  0  0  0  0  0  0
   -1.5787   -0.1001    1.5836 Ni  0  0  2  0  0  0  0  0  0  0  0  0
    1.5424    1.0401   -0.3246 Ni  0  0  0  0  0  0  0  0  0  0  0  0
    0.9412   -1.9827    0.5988 Ni  0  0  0  0  0  0  0  0  0  0  0  0
  1  6  1  6  0  0  0
  2  7  1  0  0  0  0
  2  1  1  0  0  0  0
  3  8  1  0  0  0  0
  3  6  1  0  0  0  0
  3  9  1  0  0  0  0
  3  2  1  0  0  0  0
  4  5  1  6  0  0  0
  4  3  1  0  0  0  0
  4  8  1  0  0  0  0
  4  9  1  0  0  0  0
  5  6  1  0  0  0  0
  5  9  1  0  0  0  0
  6  9  1  0  0  0  0
  6  7  1  0  0  0  0
  7  3  1  1  0  0  0
  7  1  1  0  0  0  0
  8  2  1  0  0  0  0
  9  2  1  0  0  0  0
  9  1  1  0  0  0  0
M  END
$$$$
Individuo 6 F= -.30952253E+02 E0= -.30864293E+02 d E =-.977270E-04
 OpenBabel06111312113D

  9 21  0  0  0  0  0  0  0  0999 V2000
   -0.0044   -1.8555    1.3136 Ni  0  0  2  0  0  0  0  0  0  0  0  0
    2.1334   -0.9989    0.8696 Ni  0  0  1  0  0  0  0  0  0  0  0  0
   -1.5986   -0.6153    0.1651 Ni  0  0  0  0  0  0  0  0  0  0  0  0
   -0.3125    1.1562   -1.1217 Ni  0  0  0  0  0  0  0  0  0  0  0  0
   -1.5426    1.5841    0.7528 Ni  0  0  0  0  0  0  0  0  0  0  0  0
   -1.2432   -0.6939   -2.0853 Ni  0  0  0  0  0  0  0  0  0  0  0  0
    1.9120    0.8298   -0.5814 Ni  0  0  1  0  0  0  0  0  0  0  0  0
    0.6092   -1.1213   -0.8315 Ni  0  0  0  0  0  0  0  0  0  0  0  0
    0.3983    0.4540    1.1638 Ni  0  0  0  0  0  0  0  0  0  0  0  0
  1  8  1  6  0  0  0
  2  8  1  6  0  0  0
  2  9  1  0  0  0  0
  2  1  1  0  0  0  0
  3  5  1  0  0  0  0
  3  9  1  0  0  0  0
  3  1  1  0  0  0  0
  4  8  1  0  0  0  0
  4  3  1  0  0  0  0
  4  5  1  0  0  0  0
  4  9  1  0  0  0  0
  5  9  1  0  0  0  0
  6  4  1  0  0  0  0
  6  8  1  0  0  0  0
  6  3  1  0  0  0  0
  7  4  1  6  0  0  0
  7  2  1  0  0  0  0
  7  9  1  0  0  0  0
  8  7  1  0  0  0  0
  8  3  1  0  0  0  0
  9  1  1  0  0  0  0
M  END
$$$$
Individuo 7 F= -.30872681E+02 E0= -.30786033E+02 d E =-.902426E-04
 OpenBabel06111312113D

  9 20  0  0  0  0  0  0  0  0999 V2000
    0.5558    0.9512   -2.2675 Ni  0  0  2  0  0  0  0  0  0  0  0  0
    1.1044    2.4978   -0.6142 Ni  0  0  0  0  0  0  0  0  0  0  0  0
    1.2920    0.2629   -0.0573 Ni  0  0  0  0  0  0  0  0  0  0  0  0
   -0.4246   -0.8457   -1.1430 Ni  0  0  0  0  0  0  0  0  0  0  0  0
    2.4307    1.8552    1.1553 Ni  0  0  0  0  0  0  0  0  0  0  0  0
    0.1545    1.8340    1.4470 Ni  0  0  1  0  0  0  0  0  0  0  0  0
    0.7358   -1.8889    0.5525 Ni  0  0  0  0  0  0  0  0  0  0  0  0
   -1.0025    1.3926   -0.5817 Ni  0  0  0  0  0  0  0  0  0  0  0  0
   -0.7654   -0.2612    1.1304 Ni  0  0  0  0  0  0  0  0  0  0  0  0
  1  4  1  6  0  0  0
  1  2  1  0  0  0  0
  1  8  1  0  0  0  0
  1  3  1  0  0  0  0
  2  8  1  0  0  0  0
  2  3  1  0  0  0  0
  2  5  1  0  0  0  0
  3  7  1  0  0  0  0
  3  9  1  0  0  0  0
  3  5  1  0  0  0  0
  4  8  1  0  0  0  0
  4  3  1  0  0  0  0
  4  7  1  0  0  0  0
  4  9  1  0  0  0  0
  5  6  1  0  0  0  0
  6  2  1  6  0  0  0
  7  9  1  0  0  0  0
  8  9  1  0  0  0  0
  8  6  1  0  0  0  0
  9  6  1  0  0  0  0
M  END
$$$$
Individuo 8 F= -.31133683E+02 E0= -.31051233E+02 d E =-.739041E-04
 OpenBabel06111312113D

  9 21  0  0  0  0  0  0  0  0999 V2000
   -0.8984    0.1714    0.3630 Ni  0  0  0  0  0  0  0  0  0  0  0  0
   -2.1433    2.1742    0.3167 Ni  0  0  1  0  0  0  0  0  0  0  0  0
   -1.0301   -0.9877   -1.6017 Ni  0  0  0  0  0  0  0  0  0  0  0  0
    1.3504    0.8261    0.8565 Ni  0  0  0  0  0  0  0  0  0  0  0  0
    0.7518    0.4018   -1.4340 Ni  0  0  0  0  0  0  0  0  0  0  0  0
   -1.4655    1.2545   -1.7109 Ni  0  0  0  0  0  0  0  0  0  0  0  0
    2.2404    2.0171   -0.8721 Ni  0  0  0  0  0  0  0  0  0  0  0  0
   -0.4665    1.8444    1.8953 Ni  0  0  1  0  0  0  0  0  0  0  0  0
    0.0590    2.4670   -0.3139 Ni  0  0  0  0  0  0  0  0  0  0  0  0
  1  4  1  0  0  0  0
  1  8  1  0  0  0  0
  2  6  1  6  0  0  0
  2  1  1  0  0  0  0
  2  8  1  0  0  0  0
  3  5  1  0  0  0  0
  3  1  1  0  0  0  0
  4  8  1  0  0  0  0
  5  7  1  0  0  0  0
  5  9  1  0  0  0  0
  5  1  1  0  0  0  0
  5  4  1  0  0  0  0
  6  3  1  0  0  0  0
  6  5  1  0  0  0  0
  6  9  1  0  0  0  0
  6  1  1  0  0  0  0
  7  9  1  0  0  0  0
  7  4  1  0  0  0  0
  8  9  1  6  0  0  0
  9  2  1  0  0  0  0
  9  4  1  0  0  0  0
M  END
$$$$
Individuo 9 F= -.30719689E+02 E0= -.30613971E+02 d E =-.414112E-04
 OpenBabel06111312113D

  9 21  0  0  0  0  0  0  0  0999 V2000
    1.1879   -0.0369   -1.0835 Ni  0  0  0  0  0  0  0  0  0  0  0  0
   -1.3138   -2.8983   -1.4535 Ni  0  0  0  0  0  0  0  0  0  0  0  0
    0.4079   -1.7345   -2.5124 Ni  0  0  0  0  0  0  0  0  0  0  0  0
    1.8415    1.0797    0.8397 Ni  0  0  0  0  0  0  0  0  0  0  0  0
    0.1478   -0.4176    1.0491 Ni  0  0  0  0  0  0  0  0  0  0  0  0
    0.5835   -2.3625   -0.2572 Ni  0  0  0  0  0  0  0  0  0  0  0  0
    2.5322   -1.9722   -1.5843 Ni  0  0  0  0  0  0  0  0  0  0  0  0
   -1.0982   -0.7220   -0.8728 Ni  0  0  0  0  0  0  0  0  0  0  0  0
    2.4270   -1.1523    0.5847 Ni  0  0  0  0  0  0  0  0  0  0  0  0
  1  8  1  0  0  0  0
  1  9  1  0  0  0  0
  1  4  1  0  0  0  0
  1  5  1  0  0  0  0
  2  8  1  0  0  0  0
  2  6  1  0  0  0  0
  3  7  1  0  0  0  0
  3  2  1  0  0  0  0
  3  1  1  0  0  0  0
  3  8  1  0  0  0  0
  3  6  1  0  0  0  0
  4  5  1  0  0  0  0
  6  9  1  0  0  0  0
  6  5  1  0  0  0  0
  7  1  1  0  0  0  0
  7  6  1  0  0  0  0
  7  9  1  0  0  0  0
  8  6  1  0  0  0  0
  8  5  1  0  0  0  0
  9  4  1  0  0  0  0
  9  5  1  0  0  0  0
M  END
$$$$
Individuo 10 F= -.30798962E+02 E0= -.30723260E+02 d E =-.132701E-03
 OpenBabel06111312113D

  9 21  0  0  0  0  0  0  0  0999 V2000
   -1.1733   -0.4560    2.4467 Ni  0  0  0  0  0  0  0  0  0  0  0  0
   -1.8737   -0.5662    0.2686 Ni  0  0  2  0  0  0  0  0  0  0  0  0
    1.7137   -1.5656   -0.8873 Ni  0  0  1  0  0  0  0  0  0  0  0  0
    0.2736   -1.2904    0.8802 Ni  0  0  0  0  0  0  0  0  0  0  0  0
    0.7133    2.1808   -0.7318 Ni  0  0  1  0  0  0  0  0  0  0  0  0
    1.9949    0.5615   -1.8842 Ni  0  0  1  0  0  0  0  0  0  0  0  0
   -0.3734    1.1031    0.9815 Ni  0  0  0  0  0  0  0  0  0  0  0  0
   -0.0941   -0.0199   -1.1371 Ni  0  0  0  0  0  0  0  0  0  0  0  0
    1.8292    0.4248    0.4155 Ni  0  0  0  0  0  0  0  0  0  0  0  0
  2  8  1  6  0  0  0
  2  4  1  0  0  0  0
  2  7  1  0  0  0  0
  2  1  1  0  0  0  0
  3  8  1  6  0  0  0
  3  9  1  0  0  0  0
  3  4  1  0  0  0  0
  4  7  1  0  0  0  0
  4  1  1  0  0  0  0
  5  8  1  6  0  0  0
  5  9  1  0  0  0  0
  5  7  1  0  0  0  0
  6  8  1  1  0  0  0
  6  3  1  0  0  0  0
  6  5  1  0  0  0  0
  6  9  1  0  0  0  0
  7  1  1  0  0  0  0
  8  4  1  0  0  0  0
  8  7  1  0  0  0  0
  9  4  1  0  0  0  0
  9  7  1  0  0  0  0
M  END
$$$$
Individuo 11 F= -.31071158E+02 E0= -.30960086E+02 d E =-.567133E-04
 OpenBabel06111312113D

  9 21  0  0  0  0  0  0  0  0999 V2000
    0.4039   -0.0192    1.2113 Ni  0  0  0  0  0  0  0  0  0  0  0  0
   -0.4415    2.6221   -1.7082 Ni  0  0  0  0  0  0  0  0  0  0  0  0
    1.0538    1.8542   -0.1737 Ni  0  0  0  0  0  0  0  0  0  0  0  0
   -1.6942   -0.8752    0.9090 Ni  0  0  0  0  0  0  0  0  0  0  0  0
    2.0000   -0.3007   -0.5566 Ni  0  0  0  0  0  0  0  0  0  0  0  0
    0.4739    0.5608   -2.1178 Ni  0  0  0  0  0  0  0  0  0  0  0  0
    2.4781    0.9061    1.3330 Ni  0  0  0  0  0  0  0  0  0  0  0  0
   -0.1406   -1.2580   -0.7418 Ni  0  0  0  0  0  0  0  0  0  0  0  0
   -1.1520    0.8853   -0.4156 Ni  0  0  0  0  0  0  0  0  0  0  0  0
  1  7  1  0  0  0  0
  2  9  1  0  0  0  0
  2  3  1  0  0  0  0
  3  1  1  0  0  0  0
  3  7  1  0  0  0  0
  4  1  1  0  0  0  0
  5  3  1  0  0  0  0
  5  1  1  0  0  0  0
  5  7  1  0  0  0  0
  6  2  1  0  0  0  0
  6  8  1  0  0  0  0
  6  5  1  0  0  0  0
  6  9  1  0  0  0  0
  6  3  1  0  0  0  0
  8  5  1  0  0  0  0
  8  9  1  0  0  0  0
  8  4  1  0  0  0  0
  8  1  1  0  0  0  0
  9  3  1  0  0  0  0
  9  4  1  0  0  0  0
  9  1  1  0  0  0  0
M  END
$$$$
Individuo 12 F= -.30507304E+02 E0= -.30451220E+02 d E =-.965892E-04
 OpenBabel06111312113D

  9 19  0  0  0  0  0  0  0  0999 V2000
   -1.0283   -1.0131   -0.8853 Ni  0  0  0  0  0  0  0  0  0  0  0  0
   -0.4218    0.2591    0.9239 Ni  0  0  0  0  0  0  0  0  0  0  0  0
    1.1387   -0.1681   -0.6975 Ni  0  0  2  0  0  0  0  0  0  0  0  0
   -0.6012    1.2721   -1.1379 Ni  0  0  0  0  0  0  0  0  0  0  0  0
   -1.9850   -0.1231    2.5766 Ni  0  0  2  0  0  0  0  0  0  0  0  0
    0.5594   -2.1185    0.4501 Ni  0  0  1  0  0  0  0  0  0  0  0  0
   -0.0231    0.9869    3.0615 Ni  0  0  0  0  0  0  0  0  0  0  0  0
    0.0359   -1.2930    2.5560 Ni  0  0  0  0  0  0  0  0  0  0  0  0
   -1.7174   -1.9312    1.1328 Ni  0  0  1  0  0  0  0  0  0  0  0  0
  1  3  1  0  0  0  0
  1  2  1  0  0  0  0
  2  8  1  0  0  0  0
  2  7  1  0  0  0  0
  3  4  1  6  0  0  0
  3  6  1  0  0  0  0
  3  2  1  0  0  0  0
  4  1  1  0  0  0  0
  4  2  1  0  0  0  0
  5  2  1  6  0  0  0
  5  7  1  0  0  0  0
  6  1  1  1  0  0  0
  6  9  1  0  0  0  0
  6  8  1  0  0  0  0
  8  5  1  0  0  0  0
  8  7  1  0  0  0  0
  9  1  1  6  0  0  0
  9  8  1  0  0  0  0
  9  5  1  0  0  0  0
M  END
$$$$
Individuo 13 F= -.30317388E+02 E0= -.30263085E+02 d E =-.317469E-05
 OpenBabel06111312113D

  9 20  0  0  0  0  0  0  0  0999 V2000
    1.7372   -0.0195    0.6538 Ni  0  0  1  0  0  0  0  0  0  0  0  0
    0.3344    0.8447    2.3164 Ni  0  0  2  0  0  0  0  0  0  0  0  0
    0.4310   -1.3038   -0.7552 Ni  0  0  0  0  0  0  0  0  0  0  0  0
    0.9310    0.9495   -1.3860 Ni  0  0  0  0  0  0  0  0  0  0  0  0
   -1.1972    0.0009   -1.9028 Ni  0  0  2  0  0  0  0  0  0  0  0  0
   -0.6979    0.4272    0.2892 Ni  0  0  0  0  0  0  0  0  0  0  0  0
    0.9465    2.2118    0.5466 Ni  0  0  0  0  0  0  0  0  0  0  0  0
    0.7025   -0.6985   -2.9756 Ni  0  0  0  0  0  0  0  0  0  0  0  0
   -1.1923    2.3338    1.4313 Ni  0  0  0  0  0  0  0  0  0  0  0  0
  1  4  1  6  0  0  0
  1  2  1  0  0  0  0
  2  6  1  6  0  0  0
  3  6  1  0  0  0  0
  3  1  1  0  0  0  0
  4  3  1  0  0  0  0
  4  6  1  0  0  0  0
  4  7  1  0  0  0  0
  5  8  1  6  0  0  0
  5  4  1  0  0  0  0
  5  3  1  0  0  0  0
  5  6  1  0  0  0  0
  6  7  1  0  0  0  0
  6  9  1  0  0  0  0
  7  1  1  0  0  0  0
  7  9  1  0  0  0  0
  7  2  1  0  0  0  0
  8  4  1  0  0  0  0
  8  3  1  0  0  0  0
  9  2  1  0  0  0  0
M  END
