lj_09_Ni.xyz
 OpenBabel06261319153D

  9 21  0  0  0  0  0  0  0  0999 V2000
   -0.2624    0.8571   -1.3049 Ni  0  0  0  0  0  0  0  0  0  0  0  0
    0.9307    2.2593    0.2481 Ni  0  0  0  0  0  0  0  0  0  0  0  0
    0.8421   -1.2593   -1.4772 Ni  0  0  2  0  0  0  0  0  0  0  0  0
    0.6555    1.3422    2.4772 Ni  0  0  1  0  0  0  0  0  0  0  0  0
   -1.1242    1.1765    0.8854 Ni  0  0  0  0  0  0  0  0  0  0  0  0
   -1.1300   -1.0288   -0.0832 Ni  0  0  0  0  0  0  0  0  0  0  0  0
    0.9543   -0.0975    0.6011 Ni  0  0  0  0  0  0  0  0  0  0  0  0
   -0.6324   -0.7127    2.2701 Ni  0  0  2  0  0  0  0  0  0  0  0  0
    2.1300    0.7956   -1.2701 Ni  0  0  2  0  0  0  0  0  0  0  0  0
  1  6  1  0  0  0  0
  1  2  1  0  0  0  0
  1  5  1  0  0  0  0
  2  7  1  0  0  0  0
  2  5  1  0  0  0  0
  3  1  1  1  0  0  0
  3  9  1  0  0  0  0
  3  6  1  0  0  0  0
  3  7  1  0  0  0  0
  4  2  1  1  0  0  0
  5  8  1  0  0  0  0
  5  4  1  0  0  0  0
  6  7  1  0  0  0  0
  6  5  1  0  0  0  0
  7  8  1  0  0  0  0
  7  4  1  0  0  0  0
  8  6  1  1  0  0  0
  8  4  1  0  0  0  0
  9  1  1  1  0  0  0
  9  2  1  0  0  0  0
  9  7  1  0  0  0  0
M  END
$$$$
lj_09_Ni.xyz
 OpenBabel06261319153D

  9 21  0  0  0  0  0  0  0  0999 V2000
    2.0166   -0.0209   -0.3513 Ni  0  0  0  0  0  0  0  0  0  0  0  0
    0.3409    1.0209    2.4685 Ni  0  0  0  0  0  0  0  0  0  0  0  0
   -1.5976   -0.0872    1.4583 Ni  0  0  0  0  0  0  0  0  0  0  0  0
    2.5976    0.1760    2.0214 Ni  0  0  0  0  0  0  0  0  0  0  0  0
    0.8203    1.8032   -1.4685 Ni  0  0  0  0  0  0  0  0  0  0  0  0
   -0.6803    1.9559    0.4631 Ni  0  0  0  0  0  0  0  0  0  0  0  0
    0.6272   -1.1071    1.3305 Ni  0  0  0  0  0  0  0  0  0  0  0  0
   -0.3941   -0.1721   -0.6749 Ni  0  0  0  0  0  0  0  0  0  0  0  0
    1.7303    2.1071    0.7867 Ni  0  0  0  0  0  0  0  0  0  0  0  0
  1  9  1  0  0  0  0
  1  7  1  0  0  0  0
  1  4  1  0  0  0  0
  3  2  1  0  0  0  0
  4  2  1  0  0  0  0
  5  8  1  0  0  0  0
  5  1  1  0  0  0  0
  5  6  1  0  0  0  0
  5  9  1  0  0  0  0
  6  9  1  0  0  0  0
  6  3  1  0  0  0  0
  6  2  1  0  0  0  0
  7  3  1  0  0  0  0
  7  4  1  0  0  0  0
  7  2  1  0  0  0  0
  8  1  1  0  0  0  0
  8  6  1  0  0  0  0
  8  7  1  0  0  0  0
  8  3  1  0  0  0  0
  9  4  1  0  0  0  0
  9  2  1  0  0  0  0
M  END
$$$$
lj_09_Ni.xyz
 OpenBabel06261319153D

  9 21  0  0  0  0  0  0  0  0999 V2000
    1.8474   -1.0537   -1.1497 Ni  0  0  0  0  0  0  0  0  0  0  0  0
   -0.3717   -0.8463    2.1497 Ni  0  0  1  0  0  0  0  0  0  0  0  0
   -0.5313    2.0537   -0.4150 Ni  0  0  2  0  0  0  0  0  0  0  0  0
   -0.1536   -0.2702   -0.1393 Ni  0  0  0  0  0  0  0  0  0  0  0  0
   -1.8195    0.7946    1.1684 Ni  0  0  2  0  0  0  0  0  0  0  0  0
    1.7934   -0.6044    1.1817 Ni  0  0  0  0  0  0  0  0  0  0  0  0
    1.6942    1.1989   -0.4131 Ni  0  0  0  0  0  0  0  0  0  0  0  0
    2.8195    1.4836    1.6587 Ni  0  0  0  0  0  0  0  0  0  0  0  0
    0.4518    1.3098    1.6096 Ni  0  0  0  0  0  0  0  0  0  0  0  0
  1  7  1  0  0  0  0
  1  4  1  0  0  0  0
  1  6  1  0  0  0  0
  2  4  1  6  0  0  0
  3  7  1  6  0  0  0
  3  4  1  0  0  0  0
  3  5  1  0  0  0  0
  3  9  1  0  0  0  0
  4  6  1  0  0  0  0
  5  4  1  6  0  0  0
  5  9  1  0  0  0  0
  5  2  1  0  0  0  0
  6  9  1  0  0  0  0
  6  8  1  0  0  0  0
  6  2  1  0  0  0  0
  7  4  1  0  0  0  0
  7  6  1  0  0  0  0
  7  9  1  0  0  0  0
  7  8  1  0  0  0  0
  9  8  1  0  0  0  0
  9  2  1  0  0  0  0
M  END
$$$$
lj_09_Ni.xyz
 OpenBabel06261319153D

  9 20  0  0  0  0  0  0  0  0999 V2000
    1.6632   -0.2844    2.3291 Ni  0  0  0  0  0  0  0  0  0  0  0  0
    1.2903    0.8090   -1.3291 Ni  0  0  2  0  0  0  0  0  0  0  0  0
   -0.7702   -0.1371   -0.6325 Ni  0  0  0  0  0  0  0  0  0  0  0  0
    0.5241    1.1488    0.8516 Ni  0  0  0  0  0  0  0  0  0  0  0  0
    2.8048    0.7002    0.4930 Ni  0  0  0  0  0  0  0  0  0  0  0  0
   -1.8048    1.1101    1.0861 Ni  0  0  0  0  0  0  0  0  0  0  0  0
   -0.5354   -0.7993    1.6370 Ni  0  0  2  0  0  0  0  0  0  0  0  0
    2.1194    2.0291    2.3216 Ni  0  0  0  0  0  0  0  0  0  0  0  0
    1.2584   -1.0291    0.1395 Ni  0  0  0  0  0  0  0  0  0  0  0  0
  2  3  1  6  0  0  0
  2  9  1  0  0  0  0
  2  5  1  0  0  0  0
  2  4  1  0  0  0  0
  3  9  1  0  0  0  0
  3  4  1  0  0  0  0
  3  6  1  0  0  0  0
  4  6  1  0  0  0  0
  4  8  1  0  0  0  0
  4  1  1  0  0  0  0
  5  4  1  0  0  0  0
  5  8  1  0  0  0  0
  5  1  1  0  0  0  0
  6  7  1  0  0  0  0
  7  3  1  6  0  0  0
  7  1  1  0  0  0  0
  8  1  1  0  0  0  0
  9  5  1  0  0  0  0
  9  7  1  0  0  0  0
  9  1  1  0  0  0  0
M  END
$$$$
lj_09_Ni.xyz
 OpenBabel06261319153D

  9 21  0  0  0  0  0  0  0  0999 V2000
   -0.7770   -0.1936    2.5454 Ni  0  0  2  0  0  0  0  0  0  0  0  0
   -1.4118   -0.4208   -1.5454 Ni  0  0  0  0  0  0  0  0  0  0  0  0
    1.3535   -0.4803    1.4958 Ni  0  0  0  0  0  0  0  0  0  0  0  0
   -1.1792    0.8753    0.4487 Ni  0  0  0  0  0  0  0  0  0  0  0  0
    0.7716    0.1110   -0.7273 Ni  0  0  0  0  0  0  0  0  0  0  0  0
    0.4020    2.4474   -0.4255 Ni  0  0  2  0  0  0  0  0  0  0  0  0
    0.5251    1.7239    1.8650 Ni  0  0  0  0  0  0  0  0  0  0  0  0
   -0.5986   -1.4474    0.4895 Ni  0  0  0  0  0  0  0  0  0  0  0  0
    2.4118    1.4089    0.4287 Ni  0  0  2  0  0  0  0  0  0  0  0  0
  1  4  1  6  0  0  0
  2  5  1  0  0  0  0
  2  4  1  0  0  0  0
  2  8  1  0  0  0  0
  3  7  1  0  0  0  0
  3  1  1  0  0  0  0
  4  8  1  0  0  0  0
  4  7  1  0  0  0  0
  5  4  1  0  0  0  0
  5  8  1  0  0  0  0
  5  3  1  0  0  0  0
  6  5  1  1  0  0  0
  6  9  1  0  0  0  0
  6  4  1  0  0  0  0
  6  7  1  0  0  0  0
  7  1  1  0  0  0  0
  8  3  1  0  0  0  0
  8  1  1  0  0  0  0
  9  5  1  6  0  0  0
  9  3  1  0  0  0  0
  9  7  1  0  0  0  0
M  END
$$$$
lj_09_Ni.xyz
 OpenBabel06261319153D

  9 21  0  0  0  0  0  0  0  0999 V2000
    0.0407   -1.1965    0.4297 Ni  0  0  0  0  0  0  0  0  0  0  0  0
    1.1738    0.0071    2.1155 Ni  0  0  0  0  0  0  0  0  0  0  0  0
    2.3016   -0.6574    0.1399 Ni  0  0  2  0  0  0  0  0  0  0  0  0
    0.7291    1.0863    0.0882 Ni  0  0  0  0  0  0  0  0  0  0  0  0
   -1.0534    0.5698    1.5370 Ni  0  0  0  0  0  0  0  0  0  0  0  0
   -0.6000   -1.4434    2.6738 Ni  0  0  0  0  0  0  0  0  0  0  0  0
   -1.1853    2.4434    0.1146 Ni  0  0  0  0  0  0  0  0  0  0  0  0
    0.7774   -0.4560   -1.6738 Ni  0  0  2  0  0  0  0  0  0  0  0  0
   -1.3016    0.2727   -0.8001 Ni  0  0  0  0  0  0  0  0  0  0  0  0
  1  5  1  0  0  0  0
  1  2  1  0  0  0  0
  1  6  1  0  0  0  0
  2  6  1  0  0  0  0
  3  4  1  6  0  0  0
  3  1  1  0  0  0  0
  3  2  1  0  0  0  0
  4  7  1  0  0  0  0
  4  5  1  0  0  0  0
  4  2  1  0  0  0  0
  5  2  1  0  0  0  0
  5  6  1  0  0  0  0
  7  5  1  0  0  0  0
  8  9  1  6  0  0  0
  8  4  1  0  0  0  0
  8  3  1  0  0  0  0
  8  1  1  0  0  0  0
  9  4  1  0  0  0  0
  9  7  1  0  0  0  0
  9  1  1  0  0  0  0
  9  5  1  0  0  0  0
M  END
$$$$
lj_09_Ni.xyz
 OpenBabel06261319153D

  9 21  0  0  0  0  0  0  0  0999 V2000
    1.0730    1.8891   -0.9903 Ni  0  0  0  0  0  0  0  0  0  0  0  0
   -0.8851    1.9119    0.3029 Ni  0  0  0  0  0  0  0  0  0  0  0  0
    0.1396   -0.1079   -0.2601 Ni  0  0  0  0  0  0  0  0  0  0  0  0
   -0.7158    0.1885    1.8960 Ni  0  0  0  0  0  0  0  0  0  0  0  0
    1.3208   -0.9119    1.5623 Ni  0  0  0  0  0  0  0  0  0  0  0  0
    3.1585    0.4630    1.9903 Ni  0  0  0  0  0  0  0  0  0  0  0  0
    2.4440    0.1511   -0.2112 Ni  0  0  0  0  0  0  0  0  0  0  0  0
    1.1565    1.4035    1.2789 Ni  0  0  0  0  0  0  0  0  0  0  0  0
   -2.1585   -0.0325    0.0739 Ni  0  0  0  0  0  0  0  0  0  0  0  0
  1  3  1  0  0  0  0
  1  7  1  0  0  0  0
  1  2  1  0  0  0  0
  1  8  1  0  0  0  0
  2  8  1  0  0  0  0
  2  4  1  0  0  0  0
  3  7  1  0  0  0  0
  3  9  1  0  0  0  0
  3  2  1  0  0  0  0
  3  5  1  0  0  0  0
  3  4  1  0  0  0  0
  5  4  1  0  0  0  0
  5  6  1  0  0  0  0
  7  8  1  0  0  0  0
  7  5  1  0  0  0  0
  7  6  1  0  0  0  0
  8  5  1  0  0  0  0
  8  4  1  0  0  0  0
  8  6  1  0  0  0  0
  9  2  1  0  0  0  0
  9  4  1  0  0  0  0
M  END
$$$$
lj_09_Ni.xyz
 OpenBabel06261319153D

  9 21  0  0  0  0  0  0  0  0999 V2000
    2.1559    0.6870   -2.0292 Ni  0  0  0  0  0  0  0  0  0  0  0  0
    2.3605    0.9837    0.2705 Ni  0  0  0  0  0  0  0  0  0  0  0  0
    0.7173   -0.2692    1.3483 Ni  0  0  0  0  0  0  0  0  0  0  0  0
   -0.2402    1.0225    3.0292 Ni  0  0  1  0  0  0  0  0  0  0  0  0
    0.2324    0.6928   -0.7183 Ni  0  0  0  0  0  0  0  0  0  0  0  0
    0.5069    2.0986    1.1045 Ni  0  0  0  0  0  0  0  0  0  0  0  0
   -1.3605    0.7066    0.9916 Ni  0  0  2  0  0  0  0  0  0  0  0  0
    2.0580    1.1740    2.5799 Ni  0  0  1  0  0  0  0  0  0  0  0  0
    1.7241   -1.0986   -0.5745 Ni  0  0  2  0  0  0  0  0  0  0  0  0
  1  5  1  0  0  0  0
  1  2  1  0  0  0  0
  2  6  1  0  0  0  0
  2  3  1  0  0  0  0
  3  8  1  0  0  0  0
  3  4  1  0  0  0  0
  4  6  1  6  0  0  0
  5  9  1  0  0  0  0
  5  2  1  0  0  0  0
  5  6  1  0  0  0  0
  5  3  1  0  0  0  0
  6  8  1  0  0  0  0
  7  5  1  6  0  0  0
  7  6  1  0  0  0  0
  7  3  1  0  0  0  0
  7  4  1  0  0  0  0
  8  2  1  1  0  0  0
  8  4  1  0  0  0  0
  9  1  1  6  0  0  0
  9  2  1  0  0  0  0
  9  3  1  0  0  0  0
M  END
$$$$
lj_09_Ni.xyz
 OpenBabel06261319153D

  9 21  0  0  0  0  0  0  0  0999 V2000
    3.0839   -0.1601   -0.4919 Ni  0  0  0  0  0  0  0  0  0  0  0  0
    1.2086    0.9618   -1.3790 Ni  0  0  0  0  0  0  0  0  0  0  0  0
    0.9572   -1.1734   -0.3790 Ni  0  0  0  0  0  0  0  0  0  0  0  0
    1.4401    0.7084    0.9492 Ni  0  0  0  0  0  0  0  0  0  0  0  0
   -0.9200    0.1618   -0.8112 Ni  0  0  0  0  0  0  0  0  0  0  0  0
   -0.1655    2.1734    0.1065 Ni  0  0  0  0  0  0  0  0  0  0  0  0
   -0.2205    1.5736    2.3790 Ni  0  0  2  0  0  0  0  0  0  0  0  0
   -2.0839    1.1427    0.9905 Ni  0  0  1  0  0  0  0  0  0  0  0  0
   -0.4845   -0.5359    1.3754 Ni  0  0  0  0  0  0  0  0  0  0  0  0
  1  3  1  0  0  0  0
  1  4  1  0  0  0  0
  2  5  1  0  0  0  0
  2  1  1  0  0  0  0
  2  3  1  0  0  0  0
  2  6  1  0  0  0  0
  2  4  1  0  0  0  0
  3  4  1  0  0  0  0
  3  9  1  0  0  0  0
  4  9  1  0  0  0  0
  4  7  1  0  0  0  0
  5  3  1  0  0  0  0
  5  6  1  0  0  0  0
  5  9  1  0  0  0  0
  6  4  1  0  0  0  0
  6  8  1  0  0  0  0
  7  6  1  6  0  0  0
  8  5  1  1  0  0  0
  8  9  1  0  0  0  0
  8  7  1  0  0  0  0
  9  7  1  0  0  0  0
M  END
$$$$
lj_09_Ni.xyz
 OpenBabel06261319153D

  9 21  0  0  0  0  0  0  0  0999 V2000
    1.8050    0.5423    0.1740 Ni  0  0  0  0  0  0  0  0  0  0  0  0
    2.0591    1.3918    2.3711 Ni  0  0  2  0  0  0  0  0  0  0  0  0
   -1.0591   -1.2030    0.3411 Ni  0  0  2  0  0  0  0  0  0  0  0  0
    1.1257    2.7597    0.6589 Ni  0  0  1  0  0  0  0  0  0  0  0  0
   -0.5062    1.0979    0.2240 Ni  0  0  0  0  0  0  0  0  0  0  0  0
    0.3230   -0.3918   -1.4212 Ni  0  0  1  0  0  0  0  0  0  0  0  0
    0.4255   -0.2674    1.9330 Ni  0  0  0  0  0  0  0  0  0  0  0  0
    1.2564   -1.7597    0.2910 Ni  0  0  1  0  0  0  0  0  0  0  0  0
   -0.2564    1.9484    2.4212 Ni  0  0  1  0  0  0  0  0  0  0  0  0
  1  5  1  0  0  0  0
  1  7  1  0  0  0  0
  2  1  1  6  0  0  0
  2  9  1  0  0  0  0
  3  5  1  6  0  0  0
  3  7  1  0  0  0  0
  4  1  1  1  0  0  0
  4  2  1  0  0  0  0
  4  9  1  0  0  0  0
  5  4  1  0  0  0  0
  5  7  1  0  0  0  0
  6  1  1  1  0  0  0
  6  5  1  0  0  0  0
  6  8  1  0  0  0  0
  6  3  1  0  0  0  0
  7  2  1  0  0  0  0
  7  9  1  0  0  0  0
  8  1  1  6  0  0  0
  8  3  1  0  0  0  0
  8  7  1  0  0  0  0
  9  5  1  6  0  0  0
M  END
$$$$
lj_09_Ni.xyz
 OpenBabel06261319153D

  9 20  0  0  0  0  0  0  0  0999 V2000
   -1.2541    0.0940   -0.9235 Ni  0  0  0  0  0  0  0  0  0  0  0  0
    0.8766    0.8508   -0.2053 Ni  0  0  0  0  0  0  0  0  0  0  0  0
    2.5528   -0.5908    0.6648 Ni  0  0  0  0  0  0  0  0  0  0  0  0
    1.0762    2.0359    1.8249 Ni  0  0  0  0  0  0  0  0  0  0  0  0
    0.5533   -0.3102    1.9235 Ni  0  0  0  0  0  0  0  0  0  0  0  0
    0.4368   -1.4802   -0.1709 Ni  0  0  0  0  0  0  0  0  0  0  0  0
   -0.7458    2.4802   -0.8035 Ni  0  0  0  0  0  0  0  0  0  0  0  0
   -1.5528   -1.1240    1.1219 Ni  0  0  1  0  0  0  0  0  0  0  0  0
   -1.0984    1.2275    1.1884 Ni  0  0  0  0  0  0  0  0  0  0  0  0
  1  7  1  0  0  0  0
  1  2  1  0  0  0  0
  1  6  1  0  0  0  0
  1  9  1  0  0  0  0
  2  6  1  0  0  0  0
  2  3  1  0  0  0  0
  2  9  1  0  0  0  0
  2  4  1  0  0  0  0
  3  5  1  0  0  0  0
  4  5  1  0  0  0  0
  6  3  1  0  0  0  0
  6  8  1  0  0  0  0
  6  5  1  0  0  0  0
  7  2  1  0  0  0  0
  7  9  1  0  0  0  0
  8  1  1  1  0  0  0
  8  9  1  0  0  0  0
  8  5  1  0  0  0  0
  9  4  1  0  0  0  0
  9  5  1  0  0  0  0
M  END
$$$$
lj_09_Ni.xyz
 OpenBabel06261319153D

  9 20  0  0  0  0  0  0  0  0999 V2000
    0.1328    2.3864    0.3031 Ni  0  0  0  0  0  0  0  0  0  0  0  0
   -0.6485   -1.3864    0.7553 Ni  0  0  0  0  0  0  0  0  0  0  0  0
   -1.4290    0.8484    1.2498 Ni  0  0  0  0  0  0  0  0  0  0  0  0
    0.8639    0.3179    1.3290 Ni  0  0  0  0  0  0  0  0  0  0  0  0
    0.0949    2.1074    2.6431 Ni  0  0  0  0  0  0  0  0  0  0  0  0
    1.9844   -0.2509   -0.6450 Ni  0  0  2  0  0  0  0  0  0  0  0  0
    1.3659    1.8170   -1.6431 Ni  0  0  2  0  0  0  0  0  0  0  0  0
    2.4290    1.8384    0.4840 Ni  0  0  1  0  0  0  0  0  0  0  0  0
   -0.2995    0.3544   -0.7949 Ni  0  0  0  0  0  0  0  0  0  0  0  0
  1  3  1  0  0  0  0
  1  4  1  0  0  0  0
  1  5  1  0  0  0  0
  2  3  1  0  0  0  0
  2  4  1  0  0  0  0
  3  4  1  0  0  0  0
  3  5  1  0  0  0  0
  4  5  1  0  0  0  0
  6  9  1  1  0  0  0
  6  8  1  0  0  0  0
  6  4  1  0  0  0  0
  7  9  1  6  0  0  0
  7  6  1  0  0  0  0
  7  1  1  0  0  0  0
  7  8  1  0  0  0  0
  8  1  1  6  0  0  0
  8  4  1  0  0  0  0
  9  1  1  0  0  0  0
  9  2  1  0  0  0  0
  9  3  1  0  0  0  0
M  END
$$$$
lj_09_Ni.xyz
 OpenBabel06261319153D

  9 20  0  0  0  0  0  0  0  0999 V2000
   -0.0430   -0.4725    2.4639 Ni  0  0  2  0  0  0  0  0  0  0  0  0
    1.2497   -1.5678    0.7950 Ni  0  0  0  0  0  0  0  0  0  0  0  0
   -0.8818   -0.6707    0.2569 Ni  0  0  0  0  0  0  0  0  0  0  0  0
    0.3681   -1.6756   -1.4639 Ni  0  0  0  0  0  0  0  0  0  0  0  0
   -0.9108    1.1808   -1.2257 Ni  0  0  2  0  0  0  0  0  0  0  0  0
   -0.2297    1.4367    1.0612 Ni  0  0  0  0  0  0  0  0  0  0  0  0
    0.8885    2.6756   -0.6036 Ni  0  0  0  0  0  0  0  0  0  0  0  0
    1.9108    0.5954    1.6361 Ni  0  0  1  0  0  0  0  0  0  0  0  0
    1.1746    0.3407   -0.5694 Ni  0  0  0  0  0  0  0  0  0  0  0  0
  1  3  1  1  0  0  0
  2  8  1  0  0  0  0
  2  1  1  0  0  0  0
  3  2  1  0  0  0  0
  3  6  1  0  0  0  0
  4  9  1  0  0  0  0
  4  3  1  0  0  0  0
  4  2  1  0  0  0  0
  5  7  1  6  0  0  0
  5  9  1  0  0  0  0
  5  3  1  0  0  0  0
  5  6  1  0  0  0  0
  6  8  1  0  0  0  0
  6  1  1  0  0  0  0
  7  9  1  0  0  0  0
  7  6  1  0  0  0  0
  8  9  1  1  0  0  0
  8  1  1  0  0  0  0
  9  2  1  0  0  0  0
  9  6  1  0  0  0  0
M  END
$$$$
lj_09_Ni.xyz
 OpenBabel06261319153D

  9 20  0  0  0  0  0  0  0  0999 V2000
    1.4090   -1.2884    1.4283 Ni  0  0  1  0  0  0  0  0  0  0  0  0
   -1.7305    2.1230    0.3611 Ni  0  0  1  0  0  0  0  0  0  0  0  0
    0.6866    1.7513    0.0945 Ni  0  0  0  0  0  0  0  0  0  0  0  0
   -0.3956    2.2884    2.2418 Ni  0  0  0  0  0  0  0  0  0  0  0  0
   -1.0384    0.6070   -1.2418 Ni  0  0  0  0  0  0  0  0  0  0  0  0
    2.7305    0.4701    0.3357 Ni  0  0  1  0  0  0  0  0  0  0  0  0
    1.4489    0.9003    2.2386 Ni  0  0  0  0  0  0  0  0  0  0  0  0
   -0.5542    0.1003    1.1203 Ni  0  0  0  0  0  0  0  0  0  0  0  0
    0.9031   -0.5276   -0.7196 Ni  0  0  0  0  0  0  0  0  0  0  0  0
  1  9  1  1  0  0  0
  1  7  1  0  0  0  0
  2  5  1  6  0  0  0
  2  8  1  0  0  0  0
  2  4  1  0  0  0  0
  3  6  1  0  0  0  0
  3  2  1  0  0  0  0
  3  8  1  0  0  0  0
  3  7  1  0  0  0  0
  3  4  1  0  0  0  0
  5  9  1  0  0  0  0
  5  8  1  0  0  0  0
  6  9  1  6  0  0  0
  6  1  1  0  0  0  0
  6  7  1  0  0  0  0
  7  4  1  0  0  0  0
  8  1  1  0  0  0  0
  8  7  1  0  0  0  0
  9  3  1  0  0  0  0
  9  8  1  0  0  0  0
M  END
$$$$
lj_09_Ni.xyz
 OpenBabel06261319153D

  9 20  0  0  0  0  0  0  0  0999 V2000
    1.3219   -1.7146    1.6895 Ni  0  0  2  0  0  0  0  0  0  0  0  0
    1.3398   -1.0717   -0.5728 Ni  0  0  0  0  0  0  0  0  0  0  0  0
   -0.0168    2.7567   -0.6973 Ni  0  0  0  0  0  0  0  0  0  0  0  0
   -0.0307    2.1116    1.5540 Ni  0  0  2  0  0  0  0  0  0  0  0  0
    1.6445    0.5395    1.1206 Ni  0  0  0  0  0  0  0  0  0  0  0  0
    1.6726    1.1919   -1.1242 Ni  0  0  2  0  0  0  0  0  0  0  0  0
   -0.3589    0.4956   -0.1384 Ni  0  0  0  0  0  0  0  0  0  0  0  0
   -0.6726   -1.7567    0.4355 Ni  0  0  1  0  0  0  0  0  0  0  0  0
   -0.3754   -0.1456    2.1242 Ni  0  0  0  0  0  0  0  0  0  0  0  0
  1  2  1  6  0  0  0
  1  9  1  0  0  0  0
  2  7  1  0  0  0  0
  2  5  1  0  0  0  0
  3  7  1  0  0  0  0
  4  3  1  1  0  0  0
  4  9  1  0  0  0  0
  5  4  1  0  0  0  0
  5  1  1  0  0  0  0
  5  9  1  0  0  0  0
  6  3  1  6  0  0  0
  6  2  1  0  0  0  0
  6  7  1  0  0  0  0
  6  5  1  0  0  0  0
  7  8  1  0  0  0  0
  7  4  1  0  0  0  0
  7  9  1  0  0  0  0
  8  2  1  1  0  0  0
  8  1  1  0  0  0  0
  8  9  1  0  0  0  0
M  END
$$$$
lj_09_Ni.xyz
 OpenBabel06261319153D

  9 21  0  0  0  0  0  0  0  0999 V2000
    0.5209   -1.4937    0.5265 Ni  0  0  0  0  0  0  0  0  0  0  0  0
    1.2932    2.2521   -0.6332 Ni  0  0  0  0  0  0  0  0  0  0  0  0
   -0.9704    2.1358   -0.2319 Ni  0  0  0  0  0  0  0  0  0  0  0  0
    0.1718    0.2643   -0.9332 Ni  0  0  0  0  0  0  0  0  0  0  0  0
   -0.6228    0.3834    1.2329 Ni  0  0  0  0  0  0  0  0  0  0  0  0
    1.6449    0.4999    0.8309 Ni  0  0  0  0  0  0  0  0  0  0  0  0
   -1.7705    2.2604    1.9332 Ni  0  0  0  0  0  0  0  0  0  0  0  0
    2.7705    2.4937    1.1282 Ni  0  0  0  0  0  0  0  0  0  0  0  0
    0.5006    2.3747    1.5334 Ni  0  0  0  0  0  0  0  0  0  0  0  0
  1  6  1  0  0  0  0
  1  5  1  0  0  0  0
  2  3  1  0  0  0  0
  2  6  1  0  0  0  0
  2  8  1  0  0  0  0
  2  9  1  0  0  0  0
  3  5  1  0  0  0  0
  3  9  1  0  0  0  0
  3  7  1  0  0  0  0
  4  2  1  0  0  0  0
  4  3  1  0  0  0  0
  4  1  1  0  0  0  0
  4  6  1  0  0  0  0
  4  5  1  0  0  0  0
  5  9  1  0  0  0  0
  5  7  1  0  0  0  0
  6  8  1  0  0  0  0
  6  5  1  0  0  0  0
  6  9  1  0  0  0  0
  8  9  1  0  0  0  0
  9  7  1  0  0  0  0
M  END
$$$$
lj_09_Ni.xyz
 OpenBabel06261319153D

  9 20  0  0  0  0  0  0  0  0999 V2000
    0.5415   -0.9915    0.4816 Ni  0  0  0  0  0  0  0  0  0  0  0  0
    1.2263    1.0108    1.4401 Ni  0  0  0  0  0  0  0  0  0  0  0  0
   -1.0157    0.5656    1.2213 Ni  0  0  0  0  0  0  0  0  0  0  0  0
    2.3789    0.1269   -0.3557 Ni  0  0  1  0  0  0  0  0  0  0  0  0
   -1.4738   -1.6904    1.3384 Ni  0  0  0  0  0  0  0  0  0  0  0  0
   -1.3921   -0.6218   -0.7237 Ni  0  0  2  0  0  0  0  0  0  0  0  0
    2.4738   -0.9067    1.7237 Ni  0  0  0  0  0  0  0  0  0  0  0  0
    0.2625    0.9830   -0.6765 Ni  0  0  0  0  0  0  0  0  0  0  0  0
   -0.2196    2.6904    0.7901 Ni  0  0  0  0  0  0  0  0  0  0  0  0
  1  3  1  0  0  0  0
  1  5  1  0  0  0  0
  1  7  1  0  0  0  0
  2  7  1  0  0  0  0
  3  5  1  0  0  0  0
  3  2  1  0  0  0  0
  4  8  1  6  0  0  0
  4  1  1  0  0  0  0
  4  2  1  0  0  0  0
  4  7  1  0  0  0  0
  6  8  1  6  0  0  0
  6  1  1  0  0  0  0
  6  3  1  0  0  0  0
  6  5  1  0  0  0  0
  8  1  1  0  0  0  0
  8  9  1  0  0  0  0
  8  3  1  0  0  0  0
  8  2  1  0  0  0  0
  9  3  1  0  0  0  0
  9  2  1  0  0  0  0
M  END
$$$$
lj_09_Ni.xyz
 OpenBabel06261319153D

  9 19  0  0  0  0  0  0  0  0999 V2000
    0.7567    2.5393    1.5536 Ni  0  0  2  0  0  0  0  0  0  0  0  0
    1.5554    0.5572    2.4601 Ni  0  0  1  0  0  0  0  0  0  0  0  0
    0.5128    0.5728    0.3906 Ni  0  0  0  0  0  0  0  0  0  0  0  0
    2.6052    1.4828    0.6217 Ni  0  0  0  0  0  0  0  0  0  0  0  0
   -1.6052   -0.3424    0.6082 Ni  0  0  2  0  0  0  0  0  0  0  0  0
   -0.7220    0.9327    2.3110 Ni  0  0  0  0  0  0  0  0  0  0  0  0
    0.1510   -1.1690    1.8661 Ni  0  0  0  0  0  0  0  0  0  0  0  0
    0.1006   -1.5393   -0.4146 Ni  0  0  2  0  0  0  0  0  0  0  0  0
   -0.8183    0.3219   -1.4601 Ni  0  0  0  0  0  0  0  0  0  0  0  0
  1  3  1  6  0  0  0
  1  6  1  0  0  0  0
  1  2  1  0  0  0  0
  2  4  1  1  0  0  0
  3  4  1  0  0  0  0
  3  7  1  0  0  0  0
  3  6  1  0  0  0  0
  4  1  1  0  0  0  0
  5  9  1  1  0  0  0
  5  7  1  0  0  0  0
  5  6  1  0  0  0  0
  6  2  1  0  0  0  0
  7  6  1  0  0  0  0
  7  2  1  0  0  0  0
  8  9  1  6  0  0  0
  8  3  1  0  0  0  0
  8  5  1  0  0  0  0
  8  7  1  0  0  0  0
  9  3  1  0  0  0  0
M  END
$$$$
lj_09_Ni.xyz
 OpenBabel06261319153D

  9 20  0  0  0  0  0  0  0  0999 V2000
    1.4903    2.0192    2.6274 Ni  0  0  0  0  0  0  0  0  0  0  0  0
   -0.3004    1.0655    1.5898 Ni  0  0  0  0  0  0  0  0  0  0  0  0
    1.6181   -0.1326   -1.3762 Ni  0  0  1  0  0  0  0  0  0  0  0  0
    0.4014   -0.7877    0.4392 Ni  0  0  0  0  0  0  0  0  0  0  0  0
   -0.5479   -0.8682   -1.6274 Ni  0  0  0  0  0  0  0  0  0  0  0  0
   -0.1369    1.1648   -0.6709 Ni  0  0  2  0  0  0  0  0  0  0  0  0
    1.3929   -0.2589    2.4219 Ni  0  0  0  0  0  0  0  0  0  0  0  0
   -0.7704   -1.0192    2.3810 Ni  0  0  0  0  0  0  0  0  0  0  0  0
    1.7704    1.0426    0.5794 Ni  0  0  0  0  0  0  0  0  0  0  0  0
  2  8  1  0  0  0  0
  2  7  1  0  0  0  0
  2  1  1  0  0  0  0
  3  5  1  6  0  0  0
  3  6  1  0  0  0  0
  3  4  1  0  0  0  0
  3  9  1  0  0  0  0
  4  9  1  0  0  0  0
  4  2  1  0  0  0  0
  4  8  1  0  0  0  0
  4  7  1  0  0  0  0
  5  4  1  0  0  0  0
  6  5  1  1  0  0  0
  6  9  1  0  0  0  0
  6  2  1  0  0  0  0
  7  1  1  0  0  0  0
  8  7  1  0  0  0  0
  9  2  1  0  0  0  0
  9  7  1  0  0  0  0
  9  1  1  0  0  0  0
M  END
$$$$
lj_09_Ni.xyz
 OpenBabel06261319153D

  9 20  0  0  0  0  0  0  0  0999 V2000
    1.2332    1.8435    0.7526 Ni  0  0  0  0  0  0  0  0  0  0  0  0
    0.5302   -0.0211   -0.2481 Ni  0  0  0  0  0  0  0  0  0  0  0  0
   -0.1961   -2.0450   -0.8434 Ni  0  0  0  0  0  0  0  0  0  0  0  0
   -0.5398    3.0450    1.4089 Ni  0  0  0  0  0  0  0  0  0  0  0  0
   -0.6463    0.8111    1.4790 Ni  0  0  0  0  0  0  0  0  0  0  0  0
   -0.6424    1.8594   -0.5017 Ni  0  0  2  0  0  0  0  0  0  0  0  0
    1.3647   -0.1044    1.8434 Ni  0  0  0  0  0  0  0  0  0  0  0  0
   -0.3890   -1.3942    1.2909 Ni  0  0  1  0  0  0  0  0  0  0  0  0
    1.6463   -1.8322    0.4406 Ni  0  0  1  0  0  0  0  0  0  0  0  0
  1  4  1  0  0  0  0
  1  5  1  0  0  0  0
  1  7  1  0  0  0  0
  2  9  1  0  0  0  0
  2  1  1  0  0  0  0
  2  5  1  0  0  0  0
  2  7  1  0  0  0  0
  3  2  1  0  0  0  0
  4  5  1  0  0  0  0
  5  7  1  0  0  0  0
  6  2  1  6  0  0  0
  6  1  1  0  0  0  0
  6  4  1  0  0  0  0
  6  5  1  0  0  0  0
  8  3  1  1  0  0  0
  8  5  1  0  0  0  0
  8  7  1  0  0  0  0
  9  3  1  6  0  0  0
  9  8  1  0  0  0  0
  9  7  1  0  0  0  0
M  END
$$$$
lj_09_Ni.xyz
 OpenBabel06261319153D

  9 21  0  0  0  0  0  0  0  0999 V2000
   -0.3290   -0.3198    2.7574 Ni  0  0  2  0  0  0  0  0  0  0  0  0
   -0.6444    1.7592   -0.2430 Ni  0  0  0  0  0  0  0  0  0  0  0  0
    1.6444   -0.2502    1.7223 Ni  0  0  0  0  0  0  0  0  0  0  0  0
    0.3296    1.5286    1.7295 Ni  0  0  0  0  0  0  0  0  0  0  0  0
    0.4067   -2.0870    1.6146 Ni  0  0  0  0  0  0  0  0  0  0  0  0
    0.8725    2.3275   -1.7574 Ni  0  0  0  0  0  0  0  0  0  0  0  0
   -0.2656   -0.2702    0.5405 Ni  0  0  0  0  0  0  0  0  0  0  0  0
    1.4478    0.9514   -0.1198 Ni  0  0  0  0  0  0  0  0  0  0  0  0
    1.0520    3.0870    0.3310 Ni  0  0  2  0  0  0  0  0  0  0  0  0
  1  7  1  6  0  0  0
  2  8  1  0  0  0  0
  2  9  1  0  0  0  0
  2  7  1  0  0  0  0
  2  4  1  0  0  0  0
  3  4  1  0  0  0  0
  3  1  1  0  0  0  0
  4  1  1  0  0  0  0
  5  3  1  0  0  0  0
  5  1  1  0  0  0  0
  6  2  1  0  0  0  0
  6  8  1  0  0  0  0
  7  5  1  0  0  0  0
  7  3  1  0  0  0  0
  7  4  1  0  0  0  0
  8  9  1  0  0  0  0
  8  7  1  0  0  0  0
  8  3  1  0  0  0  0
  8  4  1  0  0  0  0
  9  6  1  6  0  0  0
  9  4  1  0  0  0  0
M  END
