# 1 E = -19.821489192154761
 OpenBabel06111311533D

  8  0  0  0  0  0  0  0  0  0999 V2000
   -0.6787    0.3348    0.6815 Ar  0  0  0  0  0  0  0  0  0  0  0  0
    0.7704   -1.0161   -0.3027 Ar  0  0  0  0  0  0  0  0  0  0  0  0
    0.0444   -0.4147    0.2887 Ar  0  0  0  0  0  0  0  0  0  0  0  0
    0.4077    0.6012    0.5562 Ar  0  0  0  0  0  0  0  0  0  0  0  0
    0.7844    0.0998   -0.3743 Ar  0  0  0  0  0  0  0  0  0  0  0  0
   -0.0656   -0.4855   -0.8225 Ar  0  0  0  0  0  0  0  0  0  0  0  0
   -0.2543    0.4972   -0.3358 Ar  0  0  0  0  0  0  0  0  0  0  0  0
   -0.9664   -0.3451   -0.1683 Ar  0  0  0  0  0  0  0  0  0  0  0  0
M  END
$$$$
# 2 E = -19.765297850906463
 OpenBabel06111311533D

  8  0  0  0  0  0  0  0  0  0999 V2000
    0.7751   -0.2585   -0.0802 Ar  0  0  0  0  0  0  0  0  0  0  0  0
   -0.3841    0.8828   -0.5317 Ar  0  0  0  0  0  0  0  0  0  0  0  0
   -0.4787    0.2371    0.3778 Ar  0  0  0  0  0  0  0  0  0  0  0  0
   -0.0944   -0.8080    0.3473 Ar  0  0  0  0  0  0  0  0  0  0  0  0
    0.6036    0.4924   -0.8925 Ar  0  0  0  0  0  0  0  0  0  0  0  0
    0.4687    0.7744    0.1766 Ar  0  0  0  0  0  0  0  0  0  0  0  0
    0.4358   -0.0289    0.9556 Ar  0  0  0  0  0  0  0  0  0  0  0  0
   -0.2043   -0.2146   -0.5956 Ar  0  0  0  0  0  0  0  0  0  0  0  0
M  END
$$$$
# 3 E = -19.189311411022362
 OpenBabel06111311533D

  8  0  0  0  0  0  0  0  0  0999 V2000
   -0.3315    0.6710    1.0762 Ar  0  0  0  0  0  0  0  0  0  0  0  0
    0.1644   -0.9250    0.1060 Ar  0  0  0  0  0  0  0  0  0  0  0  0
   -0.6225   -0.2273    0.4778 Ar  0  0  0  0  0  0  0  0  0  0  0  0
   -0.3887   -0.2726   -0.6098 Ar  0  0  0  0  0  0  0  0  0  0  0  0
    0.4563   -0.0281    0.7014 Ar  0  0  0  0  0  0  0  0  0  0  0  0
    0.1375    0.5803   -1.1055 Ar  0  0  0  0  0  0  0  0  0  0  0  0
   -0.0972    0.6272   -0.0147 Ar  0  0  0  0  0  0  0  0  0  0  0  0
    0.6901   -0.0734   -0.3862 Ar  0  0  0  0  0  0  0  0  0  0  0  0
M  END
$$$$
# 4 E = -19.169279771290233
 OpenBabel06111311533D

  8  0  0  0  0  0  0  0  0  0999 V2000
   -0.7903    0.0430    0.5001 Ar  0  0  0  0  0  0  0  0  0  0  0  0
    0.5619   -0.9827   -0.4184 Ar  0  0  0  0  0  0  0  0  0  0  0  0
   -0.7292    1.1377    0.7180 Ar  0  0  0  0  0  0  0  0  0  0  0  0
    0.1962    0.5114    0.7470 Ar  0  0  0  0  0  0  0  0  0  0  0  0
   -0.2998    0.7339   -0.2318 Ar  0  0  0  0  0  0  0  0  0  0  0  0
    0.6230    0.1120   -0.2005 Ar  0  0  0  0  0  0  0  0  0  0  0  0
    0.1325   -0.5789    0.5314 Ar  0  0  0  0  0  0  0  0  0  0  0  0
   -0.3635   -0.3564   -0.4474 Ar  0  0  0  0  0  0  0  0  0  0  0  0
M  END
$$$$
# 5 E = -18.97605633969069
 OpenBabel06111311533D

  8  0  0  0  0  0  0  0  0  0999 V2000
    0.6081    0.0135    0.4049 Ar  0  0  0  0  0  0  0  0  0  0  0  0
   -0.0659   -0.5047   -0.3284 Ar  0  0  0  0  0  0  0  0  0  0  0  0
   -0.1857    0.5948   -0.1357 Ar  0  0  0  0  0  0  0  0  0  0  0  0
    0.7062    0.2156   -0.6876 Ar  0  0  0  0  0  0  0  0  0  0  0  0
    0.2290   -1.0131    0.6195 Ar  0  0  0  0  0  0  0  0  0  0  0  0
   -0.4744   -0.1483    0.6547 Ar  0  0  0  0  0  0  0  0  0  0  0  0
   -1.0837   -0.0520   -0.2744 Ar  0  0  0  0  0  0  0  0  0  0  0  0
    0.0307    0.8049    0.9380 Ar  0  0  0  0  0  0  0  0  0  0  0  0
M  END
$$$$
# 6 E = -18.856826167771176
 OpenBabel06111311533D

  8  0  0  0  0  0  0  0  0  0999 V2000
   -0.7822   -0.9008   -0.7271 Ar  0  0  0  0  0  0  0  0  0  0  0  0
    0.4599    0.0910    0.1679 Ar  0  0  0  0  0  0  0  0  0  0  0  0
    0.7961   -0.9728    0.2284 Ar  0  0  0  0  0  0  0  0  0  0  0  0
    0.2928   -0.5947   -0.6957 Ar  0  0  0  0  0  0  0  0  0  0  0  0
   -0.0760    1.0605    0.0382 Ar  0  0  0  0  0  0  0  0  0  0  0  0
   -0.5110    0.2632    0.6966 Ar  0  0  0  0  0  0  0  0  0  0  0  0
   -0.5026    0.1350   -0.4148 Ar  0  0  0  0  0  0  0  0  0  0  0  0
   -0.2917   -0.7367    0.2590 Ar  0  0  0  0  0  0  0  0  0  0  0  0
M  END
$$$$
# 7 E = -18.828671549642311
 OpenBabel06111311533D

  8  0  0  0  0  0  0  0  0  0999 V2000
    1.0273   -0.7537    0.3427 Ar  0  0  0  0  0  0  0  0  0  0  0  0
    0.2120    0.1975   -1.1631 Ar  0  0  0  0  0  0  0  0  0  0  0  0
   -0.5594    0.1354    0.4895 Ar  0  0  0  0  0  0  0  0  0  0  0  0
    0.0103   -0.7679    0.8212 Ar  0  0  0  0  0  0  0  0  0  0  0  0
   -0.7646    0.1360   -0.6098 Ar  0  0  0  0  0  0  0  0  0  0  0  0
    0.5454    0.2028    0.6567 Ar  0  0  0  0  0  0  0  0  0  0  0  0
    0.1411   -0.3811   -0.2161 Ar  0  0  0  0  0  0  0  0  0  0  0  0
    0.0828    0.7425   -0.1977 Ar  0  0  0  0  0  0  0  0  0  0  0  0
M  END
$$$$
# 8 E = -18.778208174109157
 OpenBabel06111311533D

  8  0  0  0  0  0  0  0  0  0999 V2000
    0.0220    1.2903    0.1909 Ar  0  0  0  0  0  0  0  0  0  0  0  0
    0.2752    0.3312   -0.3183 Ar  0  0  0  0  0  0  0  0  0  0  0  0
    0.5512    0.4769    0.7541 Ar  0  0  0  0  0  0  0  0  0  0  0  0
    0.1588   -0.5106    0.4156 Ar  0  0  0  0  0  0  0  0  0  0  0  0
   -0.3281   -1.3718   -0.0987 Ar  0  0  0  0  0  0  0  0  0  0  0  0
    0.4020   -0.7250   -0.6532 Ar  0  0  0  0  0  0  0  0  0  0  0  0
   -0.6155   -0.3331   -0.3888 Ar  0  0  0  0  0  0  0  0  0  0  0  0
   -0.5295    0.3625    0.4751 Ar  0  0  0  0  0  0  0  0  0  0  0  0
M  END
