lj_08_Ni.xyz
 OpenBabel06261319113D

  8  0  0  0  0  0  0  0  0  0999 V2000
    1.8364    1.4600    0.2868 Ar  0  0  0  0  0  0  0  0  0  0  0  0
   -1.1580   -0.9204    0.0169 Ar  0  0  0  0  0  0  0  0  0  0  0  0
    0.3162   -1.7824    1.6663 Ar  0  0  0  0  0  0  0  0  0  0  0  0
    2.1580   -0.2947    1.8422 Ar  0  0  0  0  0  0  0  0  0  0  0  0
    1.1718   -0.7258   -0.2504 Ar  0  0  0  0  0  0  0  0  0  0  0  0
    0.0010    0.5335    1.4450 Ar  0  0  0  0  0  0  0  0  0  0  0  0
   -0.0547    2.7824    0.7752 Ar  0  0  0  0  0  0  0  0  0  0  0  0
   -0.2147    1.0729   -0.8422 Ar  0  0  0  0  0  0  0  0  0  0  0  0
M  END
$$$$
lj_08_Ni.xyz
 OpenBabel06261319113D

  8  0  0  0  0  0  0  0  0  0999 V2000
   -1.0205   -0.0390    0.3497 Ar  0  0  0  0  0  0  0  0  0  0  0  0
    0.0723    0.8822    2.2565 Ar  0  0  0  0  0  0  0  0  0  0  0  0
    1.0236    2.2347    0.5405 Ar  0  0  0  0  0  0  0  0  0  0  0  0
    0.7360   -1.2720    1.4429 Ar  0  0  0  0  0  0  0  0  0  0  0  0
    2.3464    0.5191    1.5933 Ar  0  0  0  0  0  0  0  0  0  0  0  0
   -1.3464    2.2720    0.8939 Ar  0  0  0  0  0  0  0  0  0  0  0  0
    1.2124    0.0862   -0.4731 Ar  0  0  0  0  0  0  0  0  0  0  0  0
   -0.4482    1.6450   -1.2565 Ar  0  0  0  0  0  0  0  0  0  0  0  0
M  END
$$$$
lj_08_Ni.xyz
 OpenBabel06261319113D

  8  0  0  0  0  0  0  0  0  0999 V2000
    2.2017    0.9720    2.4147 Ar  0  0  0  0  0  0  0  0  0  0  0  0
    0.6418   -1.1854   -1.4147 Ar  0  0  0  0  0  0  0  0  0  0  0  0
    1.0864    2.1854    0.7611 Ar  0  0  0  0  0  0  0  0  0  0  0  0
   -0.8687   -0.4066    0.1862 Ar  0  0  0  0  0  0  0  0  0  0  0  0
    0.3087    1.1099   -1.1479 Ar  0  0  0  0  0  0  0  0  0  0  0  0
   -1.2017    1.8837    0.4473 Ar  0  0  0  0  0  0  0  0  0  0  0  0
   -0.0911    0.6688    2.0951 Ar  0  0  0  0  0  0  0  0  0  0  0  0
    1.4243   -0.1086    0.5001 Ar  0  0  0  0  0  0  0  0  0  0  0  0
M  END
$$$$
lj_08_Ni.xyz
 OpenBabel06261319113D

  8  0  0  0  0  0  0  0  0  0999 V2000
    1.3358    1.2740    1.6464 Ar  0  0  0  0  0  0  0  0  0  0  0  0
    0.0024   -0.5736    1.6007 Ar  0  0  0  0  0  0  0  0  0  0  0  0
    0.4628   -2.2706    0.1363 Ar  0  0  0  0  0  0  0  0  0  0  0  0
    1.7964   -0.4116    0.1834 Ar  0  0  0  0  0  0  0  0  0  0  0  0
    0.5372    3.2706    0.8637 Ar  0  0  0  0  0  0  0  0  0  0  0  0
   -0.3358   -0.2740   -0.6464 Ar  0  0  0  0  0  0  0  0  0  0  0  0
    0.9976    1.5736   -0.6007 Ar  0  0  0  0  0  0  0  0  0  0  0  0
   -0.7964    1.4116    0.8166 Ar  0  0  0  0  0  0  0  0  0  0  0  0
M  END
$$$$
lj_08_Ni.xyz
 OpenBabel06261319113D

  8  0  0  0  0  0  0  0  0  0999 V2000
    0.7921    2.0413    0.8085 Ar  0  0  0  0  0  0  0  0  0  0  0  0
    0.3541    1.1326   -1.3077 Ar  0  0  0  0  0  0  0  0  0  0  0  0
   -1.3860    1.9823   -0.0139 Ar  0  0  0  0  0  0  0  0  0  0  0  0
    0.5077   -1.1884   -1.1915 Ar  0  0  0  0  0  0  0  0  0  0  0  0
    2.3860    2.1884   -0.8831 Ar  0  0  0  0  0  0  0  0  0  0  0  0
    1.2319    0.3141    2.3077 Ar  0  0  0  0  0  0  0  0  0  0  0  0
    1.9373    0.1236    0.0964 Ar  0  0  0  0  0  0  0  0  0  0  0  0
   -0.3439   -0.0010    0.6220 Ar  0  0  0  0  0  0  0  0  0  0  0  0
M  END
$$$$
lj_08_Ni.xyz
 OpenBabel06261319113D

  8  0  0  0  0  0  0  0  0  0999 V2000
   -0.0331    1.1320    1.1912 Ar  0  0  0  0  0  0  0  0  0  0  0  0
   -1.7184   -0.2898    0.5987 Ar  0  0  0  0  0  0  0  0  0  0  0  0
   -0.3315    0.5804   -1.0116 Ar  0  0  0  0  0  0  0  0  0  0  0  0
    0.4471   -0.9984    0.4535 Ar  0  0  0  0  0  0  0  0  0  0  0  0
    1.9309    2.2467    1.5545 Ar  0  0  0  0  0  0  0  0  0  0  0  0
    1.7777    0.0090    2.0116 Ar  0  0  0  0  0  0  0  0  0  0  0  0
    2.7184   -1.2467    0.3449 Ar  0  0  0  0  0  0  0  0  0  0  0  0
    1.7788    0.7650   -0.1711 Ar  0  0  0  0  0  0  0  0  0  0  0  0
M  END
$$$$
lj_08_Ni.xyz
 OpenBabel06261319113D

  8  0  0  0  0  0  0  0  0  0999 V2000
    0.5484    0.6402    0.7123 Ar  0  0  0  0  0  0  0  0  0  0  0  0
    1.3738   -1.1840   -0.4063 Ar  0  0  0  0  0  0  0  0  0  0  0  0
    1.0224   -1.2780    1.8538 Ar  0  0  0  0  0  0  0  0  0  0  0  0
   -0.8522   -0.0473    2.3698 Ar  0  0  0  0  0  0  0  0  0  0  0  0
    1.8522    0.9317   -1.1377 Ar  0  0  0  0  0  0  0  0  0  0  0  0
   -0.2692    0.0902   -1.3698 Ar  0  0  0  0  0  0  0  0  0  0  0  0
   -0.7646   -1.2291    0.4163 Ar  0  0  0  0  0  0  0  0  0  0  0  0
    0.0210    2.2780   -0.7781 Ar  0  0  0  0  0  0  0  0  0  0  0  0
M  END
$$$$
lj_08_Ni.xyz
 OpenBabel06261319113D

  8  0  0  0  0  0  0  0  0  0999 V2000
   -1.2141    0.2452   -0.1740 Ar  0  0  0  0  0  0  0  0  0  0  0  0
    0.1160   -0.1905   -1.9376 Ar  0  0  0  0  0  0  0  0  0  0  0  0
    1.6655    1.5990    2.9376 Ar  0  0  0  0  0  0  0  0  0  0  0  0
    0.8383   -0.5990    0.1405 Ar  0  0  0  0  0  0  0  0  0  0  0  0
    2.2141    1.0138    0.8463 Ar  0  0  0  0  0  0  0  0  0  0  0  0
    0.5847    1.5346   -0.5880 Ar  0  0  0  0  0  0  0  0  0  0  0  0
    0.0457    1.0019    1.5138 Ar  0  0  0  0  0  0  0  0  0  0  0  0
    1.4688   -0.5476    2.2872 Ar  0  0  0  0  0  0  0  0  0  0  0  0
M  END
