Individuo 1 F= -.31276217E+02 E0= -.31204433E+02 d E =-.146863E-03
 OpenBabel06261319203D

  9 21  0  0  0  0  0  0  0  0999 V2000
    1.3540    0.3773   -1.6717 Ni  0  0  1  0  0  0  0  0  0  0  0  0
    0.7834   -1.6129   -0.5947 Ni  0  0  0  0  0  0  0  0  0  0  0  0
   -2.0135    0.0183    1.4103 Ni  0  0  2  0  0  0  0  0  0  0  0  0
   -0.1022    1.3165    1.7220 Ni  0  0  0  0  0  0  0  0  0  0  0  0
   -0.5999    0.3461   -0.4159 Ni  0  0  0  0  0  0  0  0  0  0  0  0
   -1.4710   -1.7676   -0.0191 Ni  0  0  2  0  0  0  0  0  0  0  0  0
    0.0111   -1.0781    1.6133 Ni  0  0  0  0  0  0  0  0  0  0  0  0
    1.7305    0.2314    0.6092 Ni  0  0  0  0  0  0  0  0  0  0  0  0
    0.8287    2.1709   -0.2515 Ni  0  0  1  0  0  0  0  0  0  0  0  0
  1  2  1  6  0  0  0
  1  5  1  0  0  0  0
  1  9  1  0  0  0  0
  1  8  1  0  0  0  0
  2  5  1  0  0  0  0
  2  8  1  0  0  0  0
  2  7  1  0  0  0  0
  3  5  1  6  0  0  0
  3  7  1  0  0  0  0
  3  4  1  0  0  0  0
  5  6  1  0  0  0  0
  5  4  1  0  0  0  0
  6  2  1  6  0  0  0
  6  3  1  0  0  0  0
  6  7  1  0  0  0  0
  7  4  1  0  0  0  0
  8  7  1  0  0  0  0
  8  4  1  0  0  0  0
  9  5  1  1  0  0  0
  9  8  1  0  0  0  0
  9  4  1  0  0  0  0
M  END
$$$$
Individuo 2 F= -.31237419E+02 E0= -.31134307E+02 d E =-.941194E-04
 OpenBabel06261319203D

  9 21  0  0  0  0  0  0  0  0999 V2000
   -1.7798   -2.0720   -0.5134 Ni  0  0  0  0  0  0  0  0  0  0  0  0
   -0.4008   -0.6797   -1.8057 Ni  0  0  0  0  0  0  0  0  0  0  0  0
   -1.0629   -0.8983    1.3982 Ni  0  0  0  0  0  0  0  0  0  0  0  0
    1.2101   -0.4107    1.7271 Ni  0  0  0  0  0  0  0  0  0  0  0  0
   -0.2558    1.2215    0.8626 Ni  0  0  0  0  0  0  0  0  0  0  0  0
    1.3067    0.2755   -0.5273 Ni  0  0  0  0  0  0  0  0  0  0  0  0
   -1.9638    0.2730   -0.4173 Ni  0  0  0  0  0  0  0  0  0  0  0  0
   -0.3601    1.6492   -1.4487 Ni  0  0  0  0  0  0  0  0  0  0  0  0
    0.5019   -1.8497    0.0067 Ni  0  0  0  0  0  0  0  0  0  0  0  0
  1  7  1  0  0  0  0
  1  9  1  0  0  0  0
  1  3  1  0  0  0  0
  2  8  1  0  0  0  0
  2  6  1  0  0  0  0
  2  1  1  0  0  0  0
  2  7  1  0  0  0  0
  2  9  1  0  0  0  0
  3  4  1  0  0  0  0
  5  3  1  0  0  0  0
  5  4  1  0  0  0  0
  6  9  1  0  0  0  0
  6  5  1  0  0  0  0
  6  4  1  0  0  0  0
  7  5  1  0  0  0  0
  7  3  1  0  0  0  0
  8  6  1  0  0  0  0
  8  7  1  0  0  0  0
  8  5  1  0  0  0  0
  9  3  1  0  0  0  0
  9  4  1  0  0  0  0
M  END
$$$$
Individuo 3 F= -.31163956E+02 E0= -.31090995E+02 d E =-.837261E-04
 OpenBabel06261319203D

  9 21  0  0  0  0  0  0  0  0999 V2000
   -2.1165    1.3794    0.5377 Ni  0  0  1  0  0  0  0  0  0  0  0  0
    1.1710   -0.2466   -2.0973 Ni  0  0  0  0  0  0  0  0  0  0  0  0
   -1.6666   -0.8407    1.1204 Ni  0  0  0  0  0  0  0  0  0  0  0  0
   -0.1384   -1.3356   -0.5555 Ni  0  0  0  0  0  0  0  0  0  0  0  0
   -0.0848    0.7709    1.5467 Ni  0  0  0  0  0  0  0  0  0  0  0  0
    1.6508   -0.0113    0.1521 Ni  0  0  0  0  0  0  0  0  0  0  0  0
    0.5552   -1.4554    1.6918 Ni  0  0  1  0  0  0  0  0  0  0  0  0
   -0.2824    1.0049   -0.8195 Ni  0  0  0  0  0  0  0  0  0  0  0  0
   -2.1545   -0.2975   -1.1226 Ni  0  0  1  0  0  0  0  0  0  0  0  0
  1  8  1  6  0  0  0
  1  3  1  0  0  0  0
  1  5  1  0  0  0  0
  2  8  1  0  0  0  0
  2  4  1  0  0  0  0
  2  6  1  0  0  0  0
  3  5  1  0  0  0  0
  3  7  1  0  0  0  0
  4  6  1  0  0  0  0
  4  3  1  0  0  0  0
  5  7  1  0  0  0  0
  6  5  1  0  0  0  0
  6  7  1  0  0  0  0
  7  4  1  6  0  0  0
  8  4  1  0  0  0  0
  8  6  1  0  0  0  0
  8  5  1  0  0  0  0
  9  8  1  1  0  0  0
  9  4  1  0  0  0  0
  9  1  1  0  0  0  0
  9  3  1  0  0  0  0
M  END
$$$$
Individuo 4 F= -.30912965E+02 E0= -.30833491E+02 d E =-.819229E-04
 OpenBabel06261319203D

  9 21  0  0  0  0  0  0  0  0999 V2000
   -1.6362    2.0565    0.2947 Ni  0  0  0  0  0  0  0  0  0  0  0  0
    1.8569   -2.0487   -0.1631 Ni  0  0  1  0  0  0  0  0  0  0  0  0
    1.7090    0.1705   -0.8997 Ni  0  0  0  0  0  0  0  0  0  0  0  0
   -0.1566   -2.1961    1.0457 Ni  0  0  1  0  0  0  0  0  0  0  0  0
    0.6742    1.7450    0.5073 Ni  0  0  0  0  0  0  0  0  0  0  0  0
   -0.8986   -0.0449    0.6915 Ni  0  0  0  0  0  0  0  0  0  0  0  0
    1.3154   -0.3808    1.3366 Ni  0  0  0  0  0  0  0  0  0  0  0  0
   -0.1129   -1.2907   -1.1231 Ni  0  0  0  0  0  0  0  0  0  0  0  0
   -0.4271    1.0267   -1.4116 Ni  0  0  0  0  0  0  0  0  0  0  0  0
  1  5  1  0  0  0  0
  1  6  1  0  0  0  0
  2  8  1  1  0  0  0
  2  4  1  0  0  0  0
  2  7  1  0  0  0  0
  3  2  1  0  0  0  0
  3  5  1  0  0  0  0
  3  7  1  0  0  0  0
  4  8  1  6  0  0  0
  4  7  1  0  0  0  0
  5  6  1  0  0  0  0
  5  7  1  0  0  0  0
  6  4  1  0  0  0  0
  6  7  1  0  0  0  0
  8  3  1  0  0  0  0
  8  6  1  0  0  0  0
  9  8  1  0  0  0  0
  9  3  1  0  0  0  0
  9  1  1  0  0  0  0
  9  5  1  0  0  0  0
  9  6  1  0  0  0  0
M  END
$$$$
Individuo 5 F= -.30997389E+02 E0= -.30930097E+02 d E =-.131458E-03
 OpenBabel06261319203D

  9 20  0  0  0  0  0  0  0  0999 V2000
    2.1250    1.0196   -0.5968 Ni  0  0  2  0  0  0  0  0  0  0  0  0
    0.3141    0.8972    0.9345 Ni  0  0  0  0  0  0  0  0  0  0  0  0
   -1.7960    0.1446    1.6207 Ni  0  0  2  0  0  0  0  0  0  0  0  0
   -1.8733    1.6996   -0.0504 Ni  0  0  0  0  0  0  0  0  0  0  0  0
    0.0028    1.5727   -1.3119 Ni  0  0  0  0  0  0  0  0  0  0  0  0
    0.8888   -0.4274   -2.0224 Ni  0  0  1  0  0  0  0  0  0  0  0  0
   -0.1729   -1.4675    1.6885 Ni  0  0  2  0  0  0  0  0  0  0  0  0
    1.4161   -1.0396    0.1329 Ni  0  0  0  0  0  0  0  0  0  0  0  0
   -0.8648   -0.5030   -0.4513 Ni  0  0  0  0  0  0  0  0  0  0  0  0
  1  5  1  6  0  0  0
  1  8  1  0  0  0  0
  1  2  1  0  0  0  0
  2  3  1  0  0  0  0
  2  7  1  0  0  0  0
  3  9  1  6  0  0  0
  3  7  1  0  0  0  0
  4  3  1  0  0  0  0
  5  9  1  0  0  0  0
  5  4  1  0  0  0  0
  5  2  1  0  0  0  0
  6  5  1  6  0  0  0
  6  1  1  0  0  0  0
  6  9  1  0  0  0  0
  6  8  1  0  0  0  0
  7  9  1  6  0  0  0
  8  2  1  0  0  0  0
  8  7  1  0  0  0  0
  9  8  1  0  0  0  0
  9  2  1  0  0  0  0
M  END
$$$$
Individuo 6 F= -.31190495E+02 E0= -.31132954E+02 d E =-.146635E-03
 OpenBabel06261319203D

  9 21  0  0  0  0  0  0  0  0999 V2000
   -0.2203    2.0477   -0.4570 Ni  0  0  1  0  0  0  0  0  0  0  0  0
    1.1860   -0.7872    0.4252 Ni  0  0  0  0  0  0  0  0  0  0  0  0
   -0.8078    0.2963    0.9598 Ni  0  0  0  0  0  0  0  0  0  0  0  0
    0.0013   -2.3984   -0.7760 Ni  0  0  2  0  0  0  0  0  0  0  0  0
    1.2416    1.4008    1.2341 Ni  0  0  2  0  0  0  0  0  0  0  0  0
   -0.2591   -0.1305   -1.2889 Ni  0  0  0  0  0  0  0  0  0  0  0  0
   -1.9917   -1.2962   -0.2716 Ni  0  0  2  0  0  0  0  0  0  0  0  0
    1.7714    0.9803   -0.9930 Ni  0  0  2  0  0  0  0  0  0  0  0  0
   -0.5579   -1.9742    1.4357 Ni  0  0  2  0  0  0  0  0  0  0  0  0
  1  6  1  1  0  0  0
  1  3  1  0  0  0  0
  1  5  1  0  0  0  0
  2  3  1  0  0  0  0
  3  5  1  0  0  0  0
  3  9  1  0  0  0  0
  4  6  1  6  0  0  0
  4  7  1  0  0  0  0
  4  2  1  0  0  0  0
  4  9  1  0  0  0  0
  5  2  1  6  0  0  0
  6  2  1  0  0  0  0
  6  3  1  0  0  0  0
  7  6  1  6  0  0  0
  7  3  1  0  0  0  0
  7  9  1  0  0  0  0
  8  6  1  6  0  0  0
  8  1  1  0  0  0  0
  8  2  1  0  0  0  0
  8  5  1  0  0  0  0
  9  2  1  6  0  0  0
M  END
$$$$
Individuo 7 F= -.30795049E+02 E0= -.30719880E+02 d E =-.425025E-04
 OpenBabel06261319203D

  9 21  0  0  0  0  0  0  0  0999 V2000
    0.7103   -0.2449   -1.9952 Ni  0  0  1  0  0  0  0  0  0  0  0  0
   -2.1343    0.2471    0.5770 Ni  0  0  2  0  0  0  0  0  0  0  0  0
   -1.0976    2.1882    1.4245 Ni  0  0  1  0  0  0  0  0  0  0  0  0
   -0.2762    1.2529   -0.4994 Ni  0  0  0  0  0  0  0  0  0  0  0  0
    1.5494   -2.0378   -0.8504 Ni  0  0  0  0  0  0  0  0  0  0  0  0
    1.2609    2.0374    1.1435 Ni  0  0  1  0  0  0  0  0  0  0  0  0
    1.6977    0.0171    0.1350 Ni  0  0  0  0  0  0  0  0  0  0  0  0
   -0.4577   -1.1500   -0.1752 Ni  0  0  0  0  0  0  0  0  0  0  0  0
   -0.0472    0.1565    1.7365 Ni  0  0  0  0  0  0  0  0  0  0  0  0
  1  5  1  6  0  0  0
  1  4  1  0  0  0  0
  1  8  1  0  0  0  0
  1  7  1  0  0  0  0
  2  4  1  6  0  0  0
  2  3  1  0  0  0  0
  2  9  1  0  0  0  0
  3  4  1  6  0  0  0
  3  9  1  0  0  0  0
  4  8  1  0  0  0  0
  4  7  1  0  0  0  0
  5  8  1  0  0  0  0
  5  7  1  0  0  0  0
  6  4  1  6  0  0  0
  6  3  1  0  0  0  0
  6  9  1  0  0  0  0
  7  6  1  0  0  0  0
  7  9  1  0  0  0  0
  8  7  1  0  0  0  0
  8  2  1  0  0  0  0
  8  9  1  0  0  0  0
M  END
$$$$
Individuo 8 F= -.30724612E+02 E0= -.30618476E+02 d E =-.417248E-04
 OpenBabel06261319203D

  9 21  0  0  0  0  0  0  0  0999 V2000
    0.1200    0.5841    1.8378 Ni  0  0  0  0  0  0  0  0  0  0  0  0
    1.2923   -0.3829   -0.0244 Ni  0  0  0  0  0  0  0  0  0  0  0  0
    0.8544    1.9585   -0.0383 Ni  0  0  0  0  0  0  0  0  0  0  0  0
   -2.4037   -1.2784   -0.4208 Ni  0  0  0  0  0  0  0  0  0  0  0  0
   -0.6080   -1.4370    0.9682 Ni  0  0  0  0  0  0  0  0  0  0  0  0
   -0.3183   -1.3221   -1.4540 Ni  0  0  0  0  0  0  0  0  0  0  0  0
    0.5874    0.7439   -2.0095 Ni  0  0  0  0  0  0  0  0  0  0  0  0
   -1.0366    0.5819   -0.2672 Ni  0  0  0  0  0  0  0  0  0  0  0  0
    2.3224    1.0171    1.4867 Ni  0  0  0  0  0  0  0  0  0  0  0  0
  2  5  1  0  0  0  0
  2  9  1  0  0  0  0
  2  1  1  0  0  0  0
  3  2  1  0  0  0  0
  3  9  1  0  0  0  0
  3  1  1  0  0  0  0
  4  8  1  0  0  0  0
  4  5  1  0  0  0  0
  5  1  1  0  0  0  0
  6  4  1  0  0  0  0
  6  8  1  0  0  0  0
  6  2  1  0  0  0  0
  6  5  1  0  0  0  0
  7  6  1  0  0  0  0
  7  8  1  0  0  0  0
  7  3  1  0  0  0  0
  7  2  1  0  0  0  0
  8  3  1  0  0  0  0
  8  5  1  0  0  0  0
  8  1  1  0  0  0  0
  9  1  1  0  0  0  0
M  END
$$$$
Individuo 9 F= -.30872862E+02 E0= -.30786554E+02 d E =-.976978E-04
 OpenBabel06261319203D

  9 20  0  0  0  0  0  0  0  0999 V2000
   -2.0032   -0.8979   -0.0062 Ni  0  0  0  0  0  0  0  0  0  0  0  0
   -2.2795    0.8873    1.4186 Ni  0  0  0  0  0  0  0  0  0  0  0  0
   -1.0223   -0.5855   -2.0965 Ni  0  0  1  0  0  0  0  0  0  0  0  0
   -0.4240   -0.4276    1.6968 Ni  0  0  2  0  0  0  0  0  0  0  0  0
    1.1356    2.3662   -0.4664 Ni  0  0  0  0  0  0  0  0  0  0  0  0
   -0.7114    0.9981   -0.2766 Ni  0  0  0  0  0  0  0  0  0  0  0  0
    1.4604    0.3967    0.6535 Ni  0  0  0  0  0  0  0  0  0  0  0  0
    0.2884   -1.4205   -0.3516 Ni  0  0  0  0  0  0  0  0  0  0  0  0
    1.0323    0.4114   -1.6810 Ni  0  0  0  0  0  0  0  0  0  0  0  0
  1  2  1  0  0  0  0
  1  4  1  0  0  0  0
  2  4  1  0  0  0  0
  3  9  1  6  0  0  0
  3  8  1  0  0  0  0
  3  6  1  0  0  0  0
  3  1  1  0  0  0  0
  4  8  1  1  0  0  0
  5  6  1  0  0  0  0
  5  7  1  0  0  0  0
  6  1  1  0  0  0  0
  6  7  1  0  0  0  0
  6  2  1  0  0  0  0
  7  4  1  0  0  0  0
  8  1  1  0  0  0  0
  8  7  1  0  0  0  0
  9  5  1  0  0  0  0
  9  8  1  0  0  0  0
  9  6  1  0  0  0  0
  9  7  1  0  0  0  0
M  END
$$$$
Individuo 10 F= -.30949112E+02 E0= -.30860198E+02 d E =-.115533E-03
 OpenBabel06261319203D

  9 21  0  0  0  0  0  0  0  0999 V2000
   -0.1312   -0.5462   -2.5448 Ni  0  0  2  0  0  0  0  0  0  0  0  0
    0.7497    2.2611    0.8592 Ni  0  0  0  0  0  0  0  0  0  0  0  0
    1.0248   -0.0050    1.0427 Ni  0  0  0  0  0  0  0  0  0  0  0  0
   -1.7930    0.7291   -1.4699 Ni  0  0  1  0  0  0  0  0  0  0  0  0
    0.4884    1.1085   -1.0918 Ni  0  0  0  0  0  0  0  0  0  0  0  0
   -0.9373   -0.8479    1.8639 Ni  0  0  0  0  0  0  0  0  0  0  0  0
   -1.2167    1.1185    0.7362 Ni  0  0  0  0  0  0  0  0  0  0  0  0
    1.5682   -0.9849   -0.9911 Ni  0  0  1  0  0  0  0  0  0  0  0  0
   -0.7028   -1.0409   -0.3925 Ni  0  0  0  0  0  0  0  0  0  0  0  0
  1  4  1  0  0  0  0
  1  5  1  1  0  0  0
  1  8  1  0  0  0  0
  1  9  1  0  0  0  0
  2  3  1  0  0  0  0
  3  6  1  0  0  0  0
  4  5  1  1  0  0  0
  4  9  1  0  0  0  0
  4  7  1  0  0  0  0
  5  7  1  0  0  0  0
  5  2  1  0  0  0  0
  5  3  1  0  0  0  0
  7  2  1  0  0  0  0
  7  3  1  0  0  0  0
  7  6  1  0  0  0  0
  8  5  1  1  0  0  0
  8  9  1  0  0  0  0
  8  3  1  0  0  0  0
  9  7  1  0  0  0  0
  9  3  1  0  0  0  0
  9  6  1  0  0  0  0
M  END
$$$$
Individuo 11 F= -.31135617E+02 E0= -.31052827E+02 d E =-.870577E-04
 OpenBabel06261319203D

  9 21  0  0  0  0  0  0  0  0999 V2000
   -1.3770   -1.3113   -1.4085 Ni  0  0  2  0  0  0  0  0  0  0  0  0
   -0.0241    2.0374   -0.2904 Ni  0  0  0  0  0  0  0  0  0  0  0  0
   -0.3670   -0.7775    2.3174 Ni  0  0  0  0  0  0  0  0  0  0  0  0
    0.1566   -1.7298    0.3054 Ni  0  0  0  0  0  0  0  0  0  0  0  0
   -1.3015    0.1537    0.4479 Ni  0  0  0  0  0  0  0  0  0  0  0  0
   -1.5647    0.9837   -1.6935 Ni  0  0  1  0  0  0  0  0  0  0  0  0
    0.5446   -0.0324   -1.3395 Ni  0  0  0  0  0  0  0  0  0  0  0  0
    2.1498    1.4484   -0.6761 Ni  0  0  0  0  0  0  0  0  0  0  0  0
    1.0896    0.3710    1.0164 Ni  0  0  0  0  0  0  0  0  0  0  0  0
  1  7  1  1  0  0  0
  1  4  1  0  0  0  0
  1  5  1  0  0  0  0
  2  5  1  0  0  0  0
  2  9  1  0  0  0  0
  4  5  1  0  0  0  0
  4  9  1  0  0  0  0
  4  3  1  0  0  0  0
  5  9  1  0  0  0  0
  5  3  1  0  0  0  0
  6  1  1  0  0  0  0
  6  7  1  1  0  0  0
  6  2  1  0  0  0  0
  6  5  1  0  0  0  0
  7  8  1  0  0  0  0
  7  2  1  0  0  0  0
  7  4  1  0  0  0  0
  7  9  1  0  0  0  0
  8  2  1  0  0  0  0
  8  9  1  0  0  0  0
  9  3  1  0  0  0  0
M  END
$$$$
Individuo 12 F= -.31073554E+02 E0= -.30962365E+02 d E =-.490568E-04
 OpenBabel06261319203D

  9 21  0  0  0  0  0  0  0  0999 V2000
    1.8646   -1.9017    0.1148 Ni  0  0  0  0  0  0  0  0  0  0  0  0
   -0.2608   -1.7105   -0.7531 Ni  0  0  0  0  0  0  0  0  0  0  0  0
   -1.8863   -0.5632    0.4980 Ni  0  0  0  0  0  0  0  0  0  0  0  0
    1.2231    0.1542   -0.6038 Ni  0  0  0  0  0  0  0  0  0  0  0  0
   -1.2893    0.2925    2.5477 Ni  0  0  0  0  0  0  0  0  0  0  0  0
   -0.9970    0.4205   -1.4429 Ni  0  0  0  0  0  0  0  0  0  0  0  0
    0.3032   -0.8624    1.4041 Ni  0  0  0  0  0  0  0  0  0  0  0  0
    0.4355    2.2000   -1.2130 Ni  0  0  0  0  0  0  0  0  0  0  0  0
   -0.4454    1.3257    0.6992 Ni  0  0  0  0  0  0  0  0  0  0  0  0
  1  7  1  0  0  0  0
  2  4  1  0  0  0  0
  2  1  1  0  0  0  0
  2  3  1  0  0  0  0
  2  7  1  0  0  0  0
  3  9  1  0  0  0  0
  3  7  1  0  0  0  0
  3  5  1  0  0  0  0
  4  1  1  0  0  0  0
  4  9  1  0  0  0  0
  4  7  1  0  0  0  0
  6  8  1  0  0  0  0
  6  2  1  0  0  0  0
  6  4  1  0  0  0  0
  6  3  1  0  0  0  0
  6  9  1  0  0  0  0
  7  5  1  0  0  0  0
  8  4  1  0  0  0  0
  8  9  1  0  0  0  0
  9  7  1  0  0  0  0
  9  5  1  0  0  0  0
M  END
$$$$
Individuo 13 F= -.30266417E+02 E0= -.30213608E+02 d E =-.958929E-02
 OpenBabel06261319203D

  9 21  0  0  0  0  0  0  0  0999 V2000
   -0.4623    2.0263    0.8666 Ni  0  0  0  0  0  0  0  0  0  0  0  0
   -0.1011    0.2479    2.4126 Ni  0  0  1  0  0  0  0  0  0  0  0  0
    1.3493    0.1905   -1.8241 Ni  0  0  2  0  0  0  0  0  0  0  0  0
   -0.5675   -0.8191   -2.5171 Ni  0  0  0  0  0  0  0  0  0  0  0  0
   -2.2147    0.9053    1.8266 Ni  0  0  0  0  0  0  0  0  0  0  0  0
   -1.2107   -0.6690    0.5379 Ni  0  0  0  0  0  0  0  0  0  0  0  0
    1.1206    0.2590    0.4767 Ni  0  0  0  0  0  0  0  0  0  0  0  0
    0.4466   -1.6601   -0.6315 Ni  0  0  0  0  0  0  0  0  0  0  0  0
   -0.7636    0.8928   -1.0229 Ni  0  0  0  0  0  0  0  0  0  0  0  0
  1  5  1  0  0  0  0
  1  2  1  0  0  0  0
  2  7  1  1  0  0  0
  3  4  1  6  0  0  0
  3  9  1  0  0  0  0
  3  8  1  0  0  0  0
  3  7  1  0  0  0  0
  4  9  1  0  0  0  0
  4  8  1  0  0  0  0
  5  2  1  0  0  0  0
  6  1  1  0  0  0  0
  6  5  1  0  0  0  0
  6  2  1  0  0  0  0
  7  6  1  0  0  0  0
  7  1  1  0  0  0  0
  8  7  1  0  0  0  0
  8  6  1  0  0  0  0
  9  8  1  0  0  0  0
  9  7  1  0  0  0  0
  9  6  1  0  0  0  0
  9  1  1  0  0  0  0
M  END
$$$$
Individuo 14 F= -.30321050E+02 E0= -.30265940E+02 d E =-.844973E-04
 OpenBabel06261319203D

  9 20  0  0  0  0  0  0  0  0999 V2000
    1.9848   -2.3119    0.4482 Ni  0  0  0  0  0  0  0  0  0  0  0  0
   -0.5622    2.5617   -0.4694 Ni  0  0  2  0  0  0  0  0  0  0  0  0
   -0.6123    0.2310   -0.4173 Ni  0  0  0  0  0  0  0  0  0  0  0  0
    1.4822    1.4583   -0.1372 Ni  0  0  2  0  0  0  0  0  0  0  0  0
   -0.1620    1.5612    1.5780 Ni  0  0  0  0  0  0  0  0  0  0  0  0
    1.4272   -0.6669   -1.0735 Ni  0  0  0  0  0  0  0  0  0  0  0  0
   -0.2392   -1.9980   -0.0192 Ni  0  0  2  0  0  0  0  0  0  0  0  0
    0.9896   -0.4106    1.2610 Ni  0  0  0  0  0  0  0  0  0  0  0  0
   -2.2673    1.4268    0.5949 Ni  0  0  0  0  0  0  0  0  0  0  0  0
  1  8  1  0  0  0  0
  2  3  1  1  0  0  0
  2  4  1  0  0  0  0
  2  9  1  0  0  0  0
  2  5  1  0  0  0  0
  3  7  1  0  0  0  0
  3  9  1  0  0  0  0
  3  8  1  0  0  0  0
  3  5  1  0  0  0  0
  4  6  1  1  0  0  0
  4  8  1  0  0  0  0
  4  5  1  0  0  0  0
  6  3  1  0  0  0  0
  6  1  1  0  0  0  0
  6  8  1  0  0  0  0
  7  6  1  6  0  0  0
  7  1  1  0  0  0  0
  7  8  1  0  0  0  0
  8  5  1  0  0  0  0
  9  5  1  0  0  0  0
M  END
$$$$
Individuo 15 F= -.30506914E+02 E0= -.30445912E+02 d E =-.673804E-04
 OpenBabel06261319203D

  9 19  0  0  0  0  0  0  0  0999 V2000
    1.8784    0.5657   -2.1818 Ni  0  0  0  0  0  0  0  0  0  0  0  0
    2.1886    1.1649    0.0171 Ni  0  0  1  0  0  0  0  0  0  0  0  0
    0.1059    0.5502   -0.7209 Ni  0  0  0  0  0  0  0  0  0  0  0  0
   -0.3032   -1.7345    0.3134 Ni  0  0  1  0  0  0  0  0  0  0  0  0
    1.7475   -1.0637   -0.5226 Ni  0  0  0  0  0  0  0  0  0  0  0  0
   -1.8853   -0.5738   -0.9429 Ni  0  0  2  0  0  0  0  0  0  0  0  0
    1.0077   -0.1672    1.5326 Ni  0  0  2  0  0  0  0  0  0  0  0  0
   -1.8749    1.7022   -0.5789 Ni  0  0  0  0  0  0  0  0  0  0  0  0
   -1.2410    0.2641    1.1403 Ni  0  0  0  0  0  0  0  0  0  0  0  0
  1  3  1  0  0  0  0
  1  5  1  0  0  0  0
  2  1  1  6  0  0  0
  2  7  1  0  0  0  0
  3  8  1  0  0  0  0
  3  5  1  0  0  0  0
  3  2  1  0  0  0  0
  3  9  1  0  0  0  0
  4  5  1  6  0  0  0
  4  9  1  0  0  0  0
  4  7  1  0  0  0  0
  5  2  1  0  0  0  0
  6  3  1  1  0  0  0
  6  8  1  0  0  0  0
  6  4  1  0  0  0  0
  6  9  1  0  0  0  0
  7  5  1  6  0  0  0
  8  9  1  0  0  0  0
  9  7  1  0  0  0  0
M  END
$$$$
Individuo 16 F= -.30539788E+02 E0= -.30479843E+02 d E =-.465830E-04
 OpenBabel06261319203D

  9 20  0  0  0  0  0  0  0  0999 V2000
    1.4492   -0.3108    1.3133 Ni  0  0  0  0  0  0  0  0  0  0  0  0
   -0.3472    0.9296    0.4102 Ni  0  0  0  0  0  0  0  0  0  0  0  0
   -2.4475    0.0317    0.8487 Ni  0  0  1  0  0  0  0  0  0  0  0  0
    1.2813   -2.5261    0.5608 Ni  0  0  0  0  0  0  0  0  0  0  0  0
   -1.4131   -0.5782   -1.1479 Ni  0  0  0  0  0  0  0  0  0  0  0  0
   -0.6735   -1.4462    0.8865 Ni  0  0  0  0  0  0  0  0  0  0  0  0
   -2.1431    1.5863   -0.8381 Ni  0  0  0  0  0  0  0  0  0  0  0  0
    0.8927   -0.7454   -0.8898 Ni  0  0  0  0  0  0  0  0  0  0  0  0
    1.7599    1.3287   -0.2989 Ni  0  0  0  0  0  0  0  0  0  0  0  0
  2  3  1  0  0  0  0
  2  6  1  0  0  0  0
  2  1  1  0  0  0  0
  3  5  1  6  0  0  0
  3  6  1  0  0  0  0
  4  6  1  0  0  0  0
  4  1  1  0  0  0  0
  5  8  1  0  0  0  0
  5  7  1  0  0  0  0
  5  2  1  0  0  0  0
  5  6  1  0  0  0  0
  6  1  1  0  0  0  0
  7  2  1  0  0  0  0
  7  3  1  0  0  0  0
  8  9  1  0  0  0  0
  8  4  1  0  0  0  0
  8  6  1  0  0  0  0
  8  1  1  0  0  0  0
  9  2  1  0  0  0  0
  9  1  1  0  0  0  0
M  END
$$$$
Individuo 17 F= -.30873590E+02 E0= -.30809396E+02 d E =-.859048E-04
 OpenBabel06261319203D

  9 20  0  0  0  0  0  0  0  0999 V2000
    2.5387    0.4521    0.2743 Ni  0  0  0  0  0  0  0  0  0  0  0  0
   -1.2902    0.3071    0.0006 Ni  0  0  0  0  0  0  0  0  0  0  0  0
   -1.1876   -1.1551   -1.7381 Ni  0  0  0  0  0  0  0  0  0  0  0  0
   -0.7325    1.7225    1.7407 Ni  0  0  1  0  0  0  0  0  0  0  0  0
   -0.4822   -1.8400    0.3253 Ni  0  0  2  0  0  0  0  0  0  0  0  0
   -1.4438    2.5668   -0.2619 Ni  0  0  0  0  0  0  0  0  0  0  0  0
    0.6602   -0.1316    1.4396 Ni  0  0  0  0  0  0  0  0  0  0  0  0
    0.8461   -0.4326   -0.9851 Ni  0  0  0  0  0  0  0  0  0  0  0  0
    0.6954    1.7580   -0.1119 Ni  0  0  0  0  0  0  0  0  0  0  0  0
  1  7  1  0  0  0  0
  2  5  1  0  0  0  0
  2  7  1  0  0  0  0
  2  4  1  0  0  0  0
  3  8  1  0  0  0  0
  3  2  1  0  0  0  0
  4  6  1  1  0  0  0
  5  3  1  1  0  0  0
  5  7  1  0  0  0  0
  6  9  1  0  0  0  0
  6  2  1  0  0  0  0
  7  4  1  0  0  0  0
  8  9  1  0  0  0  0
  8  1  1  0  0  0  0
  8  5  1  0  0  0  0
  8  7  1  0  0  0  0
  9  2  1  0  0  0  0
  9  1  1  0  0  0  0
  9  7  1  0  0  0  0
  9  4  1  0  0  0  0
M  END
