20
Last coordinate set from file 3NFAACk_opt.log
C -1.298095 2.011014 -0.053921
C -1.230742 0.622902 -0.026045
C -0.020961 -0.083552 -0.017431
C 1.160470 0.685173 -0.032927
C 1.094341 2.082431 -0.068274
C -0.122795 2.747437 -0.081708
N -2.522053 -0.097875 -0.022471
O -2.506267 -1.284402 -0.321895
O -3.524848 0.540385 0.258145
H -2.272167 2.481040 -0.050875
H -0.158133 3.830009 -0.109188
H 2.031805 2.624949 -0.074503
C 0.014061 -1.594565 0.202521
O 0.047889 -2.046743 1.309062
O 0.061252 -2.372373 -0.890048
H -0.081853 -1.843271 -1.683903
C 2.551596 0.125328 -0.000069
O 3.537722 0.804333 0.147010
O 2.599087 -1.205627 -0.171582
H 3.528784 -1.469185 -0.102646
