20
Last coordinate set from file 3NFAACh_opt.log
C 1.277922 2.017090 -0.062707
C 1.229964 0.627930 0.004234
C 0.030427 -0.082781 0.002040
C -1.162072 0.658223 -0.039960
C -1.121631 2.053508 -0.091873
C 0.092139 2.733917 -0.111544
N 2.524553 -0.080240 0.112338
O 2.507512 -1.229113 0.527943
O 3.529780 0.540878 -0.200931
H 2.244034 2.502969 -0.069741
H 0.112580 3.815967 -0.165563
H -2.049605 2.612421 -0.156760
C -0.047617 -1.590205 0.108525
O -0.442575 -2.151382 1.092683
O 0.322995 -2.184204 -1.032458
H 0.230312 -3.139734 -0.894703
C -2.482747 -0.061636 -0.126390
O -2.650077 -1.053406 -0.778086
O -3.508427 0.507199 0.548859
H -3.181163 1.193992 1.142359
