# 1 E = -18.63256574396123
 OpenBabel06261319033D

  8 18  0  0  0  0  0  0  0  0999 V2000
   -0.1920   -0.5666   -0.0543 Cu  0  0  0  0  0  0  0  0  0  0  0  0
   -2.9009    1.5807   -1.3672 Cu  0  0  0  0  0  0  0  0  0  0  0  0
   -0.5496    1.1000   -1.8044 Cu  0  0  0  0  0  0  0  0  0  0  0  0
   -2.3513    0.3302    0.6540 Cu  0  0  0  0  0  0  0  0  0  0  0  0
   -0.3111    0.9139    1.8809 Cu  0  0  0  0  0  0  0  0  0  0  0  0
   -2.1402   -0.7296   -1.5331 Cu  0  0  0  0  0  0  0  0  0  0  0  0
   -1.1730    2.4124    0.1596 Cu  0  0  0  0  0  0  0  0  0  0  0  0
    1.0863    1.5110   -0.0257 Cu  0  0  0  0  0  0  0  0  0  0  0  0
  1  8  1  0  0  0  0
  1  4  1  0  0  0  0
  1  5  1  0  0  0  0
  2  7  1  0  0  0  0
  2  4  1  0  0  0  0
  3  6  1  0  0  0  0
  3  2  1  0  0  0  0
  3  1  1  0  0  0  0
  3  8  1  0  0  0  0
  3  7  1  0  0  0  0
  4  5  1  0  0  0  0
  6  2  1  0  0  0  0
  6  1  1  0  0  0  0
  6  4  1  0  0  0  0
  7  4  1  0  0  0  0
  7  5  1  0  0  0  0
  8  7  1  0  0  0  0
  8  5  1  0  0  0  0
M  END
$$$$
# 2 E = -18.50845760667504
 OpenBabel06261319033D

  8 18  0  0  0  0  0  0  0  0999 V2000
    1.8219    0.2227   -1.4098 Cu  0  0  0  0  0  0  0  0  0  0  0  0
   -2.1419    0.0304   -0.9095 Cu  0  0  0  0  0  0  0  0  0  0  0  0
   -0.0233   -1.3240   -1.6478 Cu  0  0  0  0  0  0  0  0  0  0  0  0
   -2.2751   -2.2995   -1.6436 Cu  0  0  1  0  0  0  0  0  0  0  0  0
   -1.1716   -1.7552    0.4661 Cu  0  0  2  0  0  0  0  0  0  0  0  0
   -0.3084    1.1167   -2.1320 Cu  0  0  0  0  0  0  0  0  0  0  0  0
    0.0230    0.3618    0.2038 Cu  0  0  0  0  0  0  0  0  0  0  0  0
   -1.6991   -0.5537   -3.2514 Cu  0  0  1  0  0  0  0  0  0  0  0  0
  1  7  1  0  0  0  0
  2  7  1  0  0  0  0
  2  5  1  0  0  0  0
  3  1  1  0  0  0  0
  3  7  1  0  0  0  0
  4  3  1  1  0  0  0
  4  2  1  0  0  0  0
  4  5  1  0  0  0  0
  5  3  1  6  0  0  0
  6  3  1  0  0  0  0
  6  1  1  0  0  0  0
  6  2  1  0  0  0  0
  6  7  1  0  0  0  0
  7  5  1  0  0  0  0
  8  6  1  6  0  0  0
  8  3  1  0  0  0  0
  8  4  1  0  0  0  0
  8  2  1  0  0  0  0
M  END
$$$$
# 3 E = -18.326238203428575
 OpenBabel06261319033D

  8 18  0  0  0  0  0  0  0  0999 V2000
   -0.6070    2.9225   -0.4909 Cu  0  0  0  0  0  0  0  0  0  0  0  0
    2.0424   -2.0924    1.0859 Cu  0  0  0  0  0  0  0  0  0  0  0  0
    0.0246    1.5623    1.4082 Cu  0  0  0  0  0  0  0  0  0  0  0  0
    1.4803    1.7024   -0.5922 Cu  0  0  0  0  0  0  0  0  0  0  0  0
    1.4108   -0.7322   -0.8133 Cu  0  0  0  0  0  0  0  0  0  0  0  0
   -0.0449   -0.8723    1.1871 Cu  0  0  0  0  0  0  0  0  0  0  0  0
    2.1262    0.3151    1.3155 Cu  0  0  0  0  0  0  0  0  0  0  0  0
   -0.6908    0.5150   -0.7205 Cu  0  0  0  0  0  0  0  0  0  0  0  0
  1  3  1  0  0  0  0
  2  6  1  0  0  0  0
  2  7  1  0  0  0  0
  4  1  1  0  0  0  0
  4  7  1  0  0  0  0
  4  3  1  0  0  0  0
  5  8  1  0  0  0  0
  5  4  1  0  0  0  0
  5  2  1  0  0  0  0
  5  6  1  0  0  0  0
  5  7  1  0  0  0  0
  6  7  1  0  0  0  0
  6  3  1  0  0  0  0
  7  3  1  0  0  0  0
  8  4  1  0  0  0  0
  8  1  1  0  0  0  0
  8  6  1  0  0  0  0
  8  3  1  0  0  0  0
M  END
$$$$
# 4 E = -18.308725748108373
 OpenBabel06261319033D

  8 18  0  0  0  0  0  0  0  0999 V2000
    1.4511    0.6259   -1.5908 Cu  0  0  0  0  0  0  0  0  0  0  0  0
   -0.2146    2.4634   -1.6087 Cu  0  0  0  0  0  0  0  0  0  0  0  0
    0.5795   -0.0969    0.6159 Cu  0  0  0  0  0  0  0  0  0  0  0  0
    1.3321    2.2115    0.3126 Cu  0  0  0  0  0  0  0  0  0  0  0  0
    0.6530   -1.6411   -1.2455 Cu  0  0  0  0  0  0  0  0  0  0  0  0
   -0.9672    0.1550   -1.3054 Cu  0  0  0  0  0  0  0  0  0  0  0  0
   -1.0438    1.7220    0.5614 Cu  0  0  0  0  0  0  0  0  0  0  0  0
    2.1460    2.9381   -1.8471 Cu  0  0  0  0  0  0  0  0  0  0  0  0
  1  6  1  0  0  0  0
  1  5  1  0  0  0  0
  1  4  1  0  0  0  0
  1  3  1  0  0  0  0
  2  1  1  0  0  0  0
  2  6  1  0  0  0  0
  2  4  1  0  0  0  0
  2  7  1  0  0  0  0
  4  7  1  0  0  0  0
  4  3  1  0  0  0  0
  5  3  1  0  0  0  0
  6  5  1  0  0  0  0
  6  7  1  0  0  0  0
  6  3  1  0  0  0  0
  7  3  1  0  0  0  0
  8  2  1  0  0  0  0
  8  1  1  0  0  0  0
  8  4  1  0  0  0  0
M  END
$$$$
# 5 E = -18.125666745223687
 OpenBabel06261319033D

  8 17  0  0  0  0  0  0  0  0999 V2000
    1.7073   -1.9691    1.2565 Cu  0  0  0  0  0  0  0  0  0  0  0  0
    2.2915    0.3153    0.7565 Cu  0  0  2  0  0  0  0  0  0  0  0  0
    0.0266   -0.6416    0.1392 Cu  0  0  0  0  0  0  0  0  0  0  0  0
   -1.1997    1.1591   -0.9873 Cu  0  0  1  0  0  0  0  0  0  0  0  0
    2.0580   -1.3179   -1.0572 Cu  0  0  2  0  0  0  0  0  0  0  0  0
    0.3606    1.7835    0.7979 Cu  0  0  0  0  0  0  0  0  0  0  0  0
    1.2074    0.9539   -1.3659 Cu  0  0  0  0  0  0  0  0  0  0  0  0
   -1.6705    0.5993    1.3290 Cu  0  0  0  0  0  0  0  0  0  0  0  0
  2  7  1  6  0  0  0
  2  6  1  0  0  0  0
  2  1  1  0  0  0  0
  3  6  1  0  0  0  0
  3  1  1  0  0  0  0
  3  8  1  0  0  0  0
  4  7  1  6  0  0  0
  4  3  1  0  0  0  0
  4  6  1  0  0  0  0
  4  8  1  0  0  0  0
  5  7  1  6  0  0  0
  5  3  1  0  0  0  0
  5  2  1  0  0  0  0
  5  1  1  0  0  0  0
  6  8  1  0  0  0  0
  7  3  1  0  0  0  0
  7  6  1  0  0  0  0
M  END
$$$$
# 6 E = -18.117556582792176
 OpenBabel06261319033D

  8 18  0  0  0  0  0  0  0  0999 V2000
    0.7508   -0.3672    1.4832 Cu  0  0  0  0  0  0  0  0  0  0  0  0
   -0.9613    1.2039    0.8100 Cu  0  0  0  0  0  0  0  0  0  0  0  0
    0.2278    0.0399   -0.9462 Cu  0  0  0  0  0  0  0  0  0  0  0  0
   -1.0340   -1.8576   -1.7589 Cu  0  0  0  0  0  0  0  0  0  0  0  0
   -1.4397   -1.1497    0.5186 Cu  0  0  0  0  0  0  0  0  0  0  0  0
    2.4430   -0.6155   -0.2278 Cu  0  0  0  0  0  0  0  0  0  0  0  0
   -0.2038   -2.5037    2.0972 Cu  0  0  0  0  0  0  0  0  0  0  0  0
    0.7050   -2.2958   -0.1352 Cu  0  0  0  0  0  0  0  0  0  0  0  0
  1  7  1  0  0  0  0
  2  1  1  0  0  0  0
  3  6  1  0  0  0  0
  3  8  1  0  0  0  0
  3  5  1  0  0  0  0
  3  2  1  0  0  0  0
  3  1  1  0  0  0  0
  4  3  1  0  0  0  0
  4  8  1  0  0  0  0
  4  5  1  0  0  0  0
  5  2  1  0  0  0  0
  5  1  1  0  0  0  0
  5  7  1  0  0  0  0
  6  8  1  0  0  0  0
  6  1  1  0  0  0  0
  8  5  1  0  0  0  0
  8  1  1  0  0  0  0
  8  7  1  0  0  0  0
M  END
$$$$
# 7 E = -18.108133623325046
 OpenBabel06261319033D

  8 18  0  0  0  0  0  0  0  0999 V2000
   -0.9998    2.0219   -2.5060 Cu  0  0  0  0  0  0  0  0  0  0  0  0
   -0.2853    2.1899   -0.1821 Cu  0  0  0  0  0  0  0  0  0  0  0  0
   -0.5994    0.0027   -1.2458 Cu  0  0  0  0  0  0  0  0  0  0  0  0
    1.5307   -0.8486   -1.9966 Cu  0  0  0  0  0  0  0  0  0  0  0  0
    2.1235    2.6291    0.0279 Cu  0  0  0  0  0  0  0  0  0  0  0  0
    1.3063    1.5490   -1.9990 Cu  0  0  0  0  0  0  0  0  0  0  0  0
    1.3929    0.2861    0.1558 Cu  0  0  0  0  0  0  0  0  0  0  0  0
    0.8443    1.8382    1.9262 Cu  0  0  0  0  0  0  0  0  0  0  0  0
  1  6  1  0  0  0  0
  1  3  1  0  0  0  0
  1  2  1  0  0  0  0
  2  5  1  0  0  0  0
  2  7  1  0  0  0  0
  2  8  1  0  0  0  0
  3  2  1  0  0  0  0
  3  7  1  0  0  0  0
  4  3  1  0  0  0  0
  4  7  1  0  0  0  0
  5  7  1  0  0  0  0
  5  8  1  0  0  0  0
  6  4  1  0  0  0  0
  6  3  1  0  0  0  0
  6  2  1  0  0  0  0
  6  5  1  0  0  0  0
  6  7  1  0  0  0  0
  7  8  1  0  0  0  0
M  END
