# 1 E = -1611.8508912169773
 OpenBabel06261319313D

  8 20  0  0  0  0  0  0  0  0999 V2000
   -1.5088    1.7326    0.7527 Cu  0  0  0  0  0  0  0  0  0  0  0  0
    1.0136   -1.4457    0.9663 Cu  0  0  0  0  0  0  0  0  0  0  0  0
    1.0162   -0.1234   -1.0007 Cu  0  0  0  0  0  0  0  0  0  0  0  0
    0.6763    0.8996    1.1387 Cu  0  0  0  0  0  0  0  0  0  0  0  0
    0.1716    2.0918   -0.8465 Cu  0  0  0  0  0  0  0  0  0  0  0  0
   -0.5197   -1.9109   -0.7493 Cu  0  0  0  0  0  0  0  0  0  0  0  0
   -1.3410    0.2876   -1.1184 Cu  0  0  0  0  0  0  0  0  0  0  0  0
   -1.1947   -0.5961    1.1035 Cu  0  0  0  0  0  0  0  0  0  0  0  0
  1  8  1  0  0  0  0
  1  4  1  0  0  0  0
  2  8  1  0  0  0  0
  2  4  1  0  0  0  0
  3  5  1  0  0  0  0
  3  6  1  0  0  0  0
  3  2  1  0  0  0  0
  3  8  1  0  0  0  0
  3  4  1  0  0  0  0
  5  1  1  0  0  0  0
  5  4  1  0  0  0  0
  6  2  1  0  0  0  0
  6  8  1  0  0  0  0
  7  3  1  0  0  0  0
  7  5  1  0  0  0  0
  7  6  1  0  0  0  0
  7  1  1  0  0  0  0
  7  8  1  0  0  0  0
  7  4  1  0  0  0  0
  8  4  1  0  0  0  0
M  END
$$$$
# 2 E = -1602.7112158127507
 OpenBabel06261319313D

  8 18  0  0  0  0  0  0  0  0999 V2000
   -0.7078    0.2512   -0.9008 Cu  0  0  0  0  0  0  0  0  0  0  0  0
    0.6924   -1.6789   -0.8664 Cu  0  0  2  0  0  0  0  0  0  0  0  0
   -1.3918   -1.7511    0.2177 Cu  0  0  2  0  0  0  0  0  0  0  0  0
   -1.7350    0.3324    1.2498 Cu  0  0  1  0  0  0  0  0  0  0  0  0
    0.5037    2.2063   -1.3694 Cu  0  0  0  0  0  0  0  0  0  0  0  0
    0.4347   -0.6485    1.2648 Cu  0  0  0  0  0  0  0  0  0  0  0  0
    0.1595    1.7035    0.8779 Cu  0  0  0  0  0  0  0  0  0  0  0  0
    1.7019    0.4255   -0.4668 Cu  0  0  0  0  0  0  0  0  0  0  0  0
  1  8  1  0  0  0  0
  1  7  1  0  0  0  0
  2  1  1  1  0  0  0
  2  8  1  0  0  0  0
  2  3  1  0  0  0  0
  2  6  1  0  0  0  0
  3  1  1  6  0  0  0
  3  4  1  0  0  0  0
  3  6  1  0  0  0  0
  4  1  1  6  0  0  0
  4  6  1  0  0  0  0
  5  1  1  0  0  0  0
  5  8  1  0  0  0  0
  5  7  1  0  0  0  0
  7  4  1  0  0  0  0
  7  6  1  0  0  0  0
  8  7  1  0  0  0  0
  8  6  1  0  0  0  0
M  END
$$$$
# 3 E = -1592.8598189193033
 OpenBabel06261319313D

  8 18  0  0  0  0  0  0  0  0999 V2000
    0.8704    0.9251    0.8260 Cu  0  0  0  0  0  0  0  0  0  0  0  0
   -0.3531   -0.4315   -2.7891 Cu  0  0  0  0  0  0  0  0  0  0  0  0
   -0.1295    1.3466   -1.2997 Cu  0  0  0  0  0  0  0  0  0  0  0  0
   -1.7213   -0.4281   -0.9028 Cu  0  0  0  0  0  0  0  0  0  0  0  0
   -1.4995    1.3668    0.6544 Cu  0  0  0  0  0  0  0  0  0  0  0  0
   -0.7214   -0.8496    1.2228 Cu  0  0  0  0  0  0  0  0  0  0  0  0
    0.6486   -0.8698   -0.7313 Cu  0  0  0  0  0  0  0  0  0  0  0  0
   -0.4978    0.9285    2.7123 Cu  0  0  0  0  0  0  0  0  0  0  0  0
  1  6  1  0  0  0  0
  1  8  1  0  0  0  0
  2  3  1  0  0  0  0
  2  4  1  0  0  0  0
  2  7  1  0  0  0  0
  3  4  1  0  0  0  0
  3  7  1  0  0  0  0
  3  5  1  0  0  0  0
  3  1  1  0  0  0  0
  4  7  1  0  0  0  0
  4  5  1  0  0  0  0
  4  6  1  0  0  0  0
  5  1  1  0  0  0  0
  5  6  1  0  0  0  0
  5  8  1  0  0  0  0
  6  8  1  0  0  0  0
  7  1  1  0  0  0  0
  7  6  1  0  0  0  0
M  END
$$$$
# 4 E = -1591.1857609645537
 OpenBabel06261319313D

  8 18  0  0  0  0  0  0  0  0999 V2000
   -0.7278    1.7200   -0.2380 Cu  0  0  0  0  0  0  0  0  0  0  0  0
    1.4501    0.8619   -0.5830 Cu  0  0  0  0  0  0  0  0  0  0  0  0
    0.7629   -1.3262   -0.0012 Cu  0  0  0  0  0  0  0  0  0  0  0  0
    0.4081    0.4903    1.5085 Cu  0  0  0  0  0  0  0  0  0  0  0  0
   -1.0481   -2.2419   -1.1437 Cu  0  0  0  0  0  0  0  0  0  0  0  0
   -1.4957   -0.5055    0.3699 Cu  0  0  0  0  0  0  0  0  0  0  0  0
   -0.3729   -0.0965   -1.7477 Cu  0  0  0  0  0  0  0  0  0  0  0  0
   -1.7445    1.3230    1.8192 Cu  0  0  0  0  0  0  0  0  0  0  0  0
  1  6  1  0  0  0  0
  1  4  1  0  0  0  0
  1  8  1  0  0  0  0
  2  1  1  0  0  0  0
  2  3  1  0  0  0  0
  2  4  1  0  0  0  0
  3  6  1  0  0  0  0
  3  4  1  0  0  0  0
  4  8  1  0  0  0  0
  5  3  1  0  0  0  0
  5  6  1  0  0  0  0
  6  4  1  0  0  0  0
  6  8  1  0  0  0  0
  7  5  1  0  0  0  0
  7  2  1  0  0  0  0
  7  1  1  0  0  0  0
  7  3  1  0  0  0  0
  7  6  1  0  0  0  0
M  END
$$$$
# 5 E = -1580.669721098021
 OpenBabel06261319313D

  8 18  0  0  0  0  0  0  0  0999 V2000
   -1.3953   -1.3810   -0.4186 Cu  0  0  0  0  0  0  0  0  0  0  0  0
    1.5931   -1.3330    1.8808 Cu  0  0  0  0  0  0  0  0  0  0  0  0
    0.9375   -0.8535   -0.3131 Cu  0  0  0  0  0  0  0  0  0  0  0  0
   -0.5936   -0.5820    1.6590 Cu  0  0  0  0  0  0  0  0  0  0  0  0
    1.2439    0.8820    1.2924 Cu  0  0  0  0  0  0  0  0  0  0  0  0
   -0.6603    1.0035   -0.1335 Cu  0  0  0  0  0  0  0  0  0  0  0  0
   -2.4916    0.3868   -1.4521 Cu  0  0  0  0  0  0  0  0  0  0  0  0
   -0.3648   -0.1707   -2.1871 Cu  0  0  0  0  0  0  0  0  0  0  0  0
  1  3  1  0  0  0  0
  1  6  1  0  0  0  0
  1  4  1  0  0  0  0
  3  6  1  0  0  0  0
  3  5  1  0  0  0  0
  3  4  1  0  0  0  0
  3  2  1  0  0  0  0
  4  2  1  0  0  0  0
  5  4  1  0  0  0  0
  5  2  1  0  0  0  0
  6  5  1  0  0  0  0
  6  4  1  0  0  0  0
  7  1  1  0  0  0  0
  7  6  1  0  0  0  0
  8  7  1  0  0  0  0
  8  1  1  0  0  0  0
  8  3  1  0  0  0  0
  8  6  1  0  0  0  0
M  END
$$$$
# 6 E = -1579.984614525684
 OpenBabel06261319313D

  8 17  0  0  0  0  0  0  0  0999 V2000
   -0.4533   -2.0198    0.4543 Cu  0  0  1  0  0  0  0  0  0  0  0  0
   -1.6620    1.3929   -1.1704 Cu  0  0  2  0  0  0  0  0  0  0  0  0
    0.6615    1.5164   -0.6865 Cu  0  0  2  0  0  0  0  0  0  0  0  0
    0.3862   -0.9547    2.3367 Cu  0  0  0  0  0  0  0  0  0  0  0  0
    1.3831   -0.5209    0.2835 Cu  0  0  0  0  0  0  0  0  0  0  0  0
   -0.3322   -0.5499   -1.3945 Cu  0  0  0  0  0  0  0  0  0  0  0  0
   -0.8897    2.6480    0.6216 Cu  0  0  0  0  0  0  0  0  0  0  0  0
   -0.8994    0.3075    0.8284 Cu  0  0  0  0  0  0  0  0  0  0  0  0
  1  6  1  6  0  0  0
  1  8  1  0  0  0  0
  1  4  1  0  0  0  0
  2  6  1  6  0  0  0
  2  3  1  0  0  0  0
  2  7  1  0  0  0  0
  2  8  1  0  0  0  0
  3  6  1  1  0  0  0
  3  5  1  0  0  0  0
  3  7  1  0  0  0  0
  5  1  1  0  0  0  0
  5  8  1  0  0  0  0
  5  4  1  0  0  0  0
  6  5  1  0  0  0  0
  6  8  1  0  0  0  0
  7  8  1  0  0  0  0
  8  4  1  0  0  0  0
M  END
$$$$
# 7 E = -1577.8487635022523
 OpenBabel06261319313D

  8 18  0  0  0  0  0  0  0  0999 V2000
    0.0782   -2.6523    0.2287 Cu  0  0  0  0  0  0  0  0  0  0  0  0
   -1.1865   -0.6839    0.2246 Cu  0  0  0  0  0  0  0  0  0  0  0  0
   -0.5155    0.6497   -1.6598 Cu  0  0  0  0  0  0  0  0  0  0  0  0
   -1.8256    1.5705    0.0260 Cu  0  0  0  0  0  0  0  0  0  0  0  0
    0.3926    1.1613    0.6163 Cu  0  0  0  0  0  0  0  0  0  0  0  0
    0.7087   -0.9459    1.6603 Cu  0  0  0  0  0  0  0  0  0  0  0  0
    1.6526    1.4214   -1.3282 Cu  0  0  0  0  0  0  0  0  0  0  0  0
    1.1500   -0.7840   -0.6851 Cu  0  0  0  0  0  0  0  0  0  0  0  0
  1  6  1  0  0  0  0
  2  1  1  0  0  0  0
  2  5  1  0  0  0  0
  2  6  1  0  0  0  0
  3  7  1  0  0  0  0
  3  8  1  0  0  0  0
  3  4  1  0  0  0  0
  3  2  1  0  0  0  0
  3  5  1  0  0  0  0
  4  2  1  0  0  0  0
  4  5  1  0  0  0  0
  5  6  1  0  0  0  0
  7  8  1  0  0  0  0
  7  5  1  0  0  0  0
  8  2  1  0  0  0  0
  8  1  1  0  0  0  0
  8  5  1  0  0  0  0
  8  6  1  0  0  0  0
M  END
$$$$
# 8 E = -1576.7259155187947
 OpenBabel06261319313D

  8 18  0  0  0  0  0  0  0  0999 V2000
    0.5585    1.2097    1.7489 Cu  0  0  0  0  0  0  0  0  0  0  0  0
   -0.9818    0.8482   -1.7590 Cu  0  0  0  0  0  0  0  0  0  0  0  0
   -1.3508    0.6086    0.5385 Cu  0  0  0  0  0  0  0  0  0  0  0  0
    0.9200    0.4859   -0.4460 Cu  0  0  0  0  0  0  0  0  0  0  0  0
   -1.9960   -1.5816    1.0475 Cu  0  0  0  0  0  0  0  0  0  0  0  0
    1.5304   -1.7720   -0.4813 Cu  0  0  0  0  0  0  0  0  0  0  0  0
   -0.7250   -1.3115   -0.8976 Cu  0  0  0  0  0  0  0  0  0  0  0  0
    0.2669   -1.0787    1.3613 Cu  0  0  0  0  0  0  0  0  0  0  0  0
  2  7  1  0  0  0  0
  2  4  1  0  0  0  0
  2  3  1  0  0  0  0
  3  5  1  0  0  0  0
  3  8  1  0  0  0  0
  3  1  1  0  0  0  0
  4  3  1  0  0  0  0
  4  8  1  0  0  0  0
  4  1  1  0  0  0  0
  5  8  1  0  0  0  0
  6  4  1  0  0  0  0
  6  8  1  0  0  0  0
  7  6  1  0  0  0  0
  7  4  1  0  0  0  0
  7  3  1  0  0  0  0
  7  5  1  0  0  0  0
  7  8  1  0  0  0  0
  8  1  1  0  0  0  0
M  END
