Individuo 1 F= -.21523512E+02 E0= -.21513193E+02 d E =-.844183E-04
 OpenBabel06261319333D

  9 21  0  0  0  0  0  0  0  0999 V2000
    1.8637   -0.0044   -1.6057 Cu  0  0  1  0  0  0  0  0  0  0  0  0
    1.1338   -0.2710    2.3783 Cu  0  0  2  0  0  0  0  0  0  0  0  0
    1.3969   -1.4770    0.2752 Cu  0  0  0  0  0  0  0  0  0  0  0  0
    0.6986    0.8864    0.3018 Cu  0  0  0  0  0  0  0  0  0  0  0  0
   -0.1422    1.4939   -1.8760 Cu  0  0  1  0  0  0  0  0  0  0  0  0
   -0.8616    1.2554    2.1007 Cu  0  0  2  0  0  0  0  0  0  0  0  0
   -1.7389    0.8583   -0.1449 Cu  0  0  0  0  0  0  0  0  0  0  0  0
   -0.8416   -1.0044    1.1306 Cu  0  0  0  0  0  0  0  0  0  0  0  0
   -0.4077   -0.8584   -1.2536 Cu  0  0  0  0  0  0  0  0  0  0  0  0
  1  9  1  1  0  0  0
  1  3  1  0  0  0  0
  1  4  1  0  0  0  0
  2  3  1  1  0  0  0
  3  4  1  0  0  0  0
  3  8  1  0  0  0  0
  4  6  1  0  0  0  0
  4  2  1  0  0  0  0
  5  1  1  0  0  0  0
  5  9  1  1  0  0  0
  5  7  1  0  0  0  0
  5  4  1  0  0  0  0
  6  7  1  1  0  0  0
  6  2  1  0  0  0  0
  7  4  1  0  0  0  0
  7  8  1  0  0  0  0
  8  6  1  0  0  0  0
  8  2  1  0  0  0  0
  9  7  1  0  0  0  0
  9  3  1  0  0  0  0
  9  8  1  0  0  0  0
M  END
$$$$
Individuo 2 F= -.21303655E+02 E0= -.21283969E+02 d E =-.915852E-04
 OpenBabel06261319333D

  9 21  0  0  0  0  0  0  0  0999 V2000
   -0.9009    1.5027   -0.1781 Cu  0  0  0  0  0  0  0  0  0  0  0  0
   -1.2992    0.1320   -2.1466 Cu  0  0  0  0  0  0  0  0  0  0  0  0
   -1.1772   -0.8844    0.0527 Cu  0  0  0  0  0  0  0  0  0  0  0  0
    0.6125   -1.2564   -1.5758 Cu  0  0  0  0  0  0  0  0  0  0  0  0
   -0.4083    0.4392    1.9400 Cu  0  0  0  0  0  0  0  0  0  0  0  0
    1.4185    1.3237    0.5749 Cu  0  0  0  0  0  0  0  0  0  0  0  0
    2.6688   -0.1713   -0.8603 Cu  0  0  0  0  0  0  0  0  0  0  0  0
    0.8792    1.1380   -1.8364 Cu  0  0  0  0  0  0  0  0  0  0  0  0
    1.1487   -1.0518    0.8256 Cu  0  0  0  0  0  0  0  0  0  0  0  0
  1  3  1  0  0  0  0
  1  6  1  0  0  0  0
  1  5  1  0  0  0  0
  2  8  1  0  0  0  0
  2  4  1  0  0  0  0
  2  1  1  0  0  0  0
  2  3  1  0  0  0  0
  3  9  1  0  0  0  0
  3  5  1  0  0  0  0
  4  7  1  0  0  0  0
  4  3  1  0  0  0  0
  4  9  1  0  0  0  0
  6  9  1  0  0  0  0
  6  5  1  0  0  0  0
  7  6  1  0  0  0  0
  7  9  1  0  0  0  0
  8  4  1  0  0  0  0
  8  7  1  0  0  0  0
  8  1  1  0  0  0  0
  8  6  1  0  0  0  0
  9  5  1  0  0  0  0
M  END
$$$$
Individuo 3 F= -.21368961E+02 E0= -.21358705E+02 d E =-.594516E-04
 OpenBabel06261319333D

  9 21  0  0  0  0  0  0  0  0999 V2000
   -2.1591    1.2696    1.4061 Cu  0  0  1  0  0  0  0  0  0  0  0  0
   -1.2068   -1.1851   -1.8427 Cu  0  0  0  0  0  0  0  0  0  0  0  0
   -1.3006   -0.8660    0.5816 Cu  0  0  0  0  0  0  0  0  0  0  0  0
    0.6024    0.0149   -0.7094 Cu  0  0  0  0  0  0  0  0  0  0  0  0
    1.9019    0.8564    1.1718 Cu  0  0  2  0  0  0  0  0  0  0  0  0
   -1.5843    1.0181   -0.9773 Cu  0  0  0  0  0  0  0  0  0  0  0  0
    0.9659   -1.4535    1.1690 Cu  0  0  2  0  0  0  0  0  0  0  0  0
   -0.1369    0.3920    2.3573 Cu  0  0  0  0  0  0  0  0  0  0  0  0
   -0.0380    2.0558    0.5542 Cu  0  0  0  0  0  0  0  0  0  0  0  0
  1  6  1  1  0  0  0
  1  8  1  0  0  0  0
  2  6  1  0  0  0  0
  2  4  1  0  0  0  0
  2  3  1  0  0  0  0
  3  7  1  0  0  0  0
  3  1  1  0  0  0  0
  3  8  1  0  0  0  0
  4  9  1  0  0  0  0
  4  3  1  0  0  0  0
  5  4  1  6  0  0  0
  5  8  1  0  0  0  0
  6  4  1  0  0  0  0
  6  9  1  0  0  0  0
  6  3  1  0  0  0  0
  7  4  1  6  0  0  0
  7  5  1  0  0  0  0
  7  8  1  0  0  0  0
  9  5  1  0  0  0  0
  9  1  1  0  0  0  0
  9  8  1  0  0  0  0
M  END
$$$$
Individuo 4 F= -.21553781E+02 E0= -.21535010E+02 d E =-.763570E-04
 OpenBabel06261319333D

  9 21  0  0  0  0  0  0  0  0999 V2000
    0.7264   -1.6502    0.8254 Cu  0  0  0  0  0  0  0  0  0  0  0  0
   -2.7205    0.7109    0.6876 Cu  0  0  1  0  0  0  0  0  0  0  0  0
   -1.4055    1.1604   -1.3292 Cu  0  0  1  0  0  0  0  0  0  0  0  0
    0.7235    0.3120   -0.6200 Cu  0  0  0  0  0  0  0  0  0  0  0  0
   -0.5601    1.8286    0.8416 Cu  0  0  0  0  0  0  0  0  0  0  0  0
    1.3146    0.6056    1.7179 Cu  0  0  0  0  0  0  0  0  0  0  0  0
   -0.9360   -0.2880    1.9942 Cu  0  0  0  0  0  0  0  0  0  0  0  0
    2.8166   -0.5801    0.2517 Cu  0  0  0  0  0  0  0  0  0  0  0  0
   -1.3062   -1.0242   -0.2928 Cu  0  0  0  0  0  0  0  0  0  0  0  0
  1  6  1  0  0  0  0
  1  7  1  0  0  0  0
  2  9  1  6  0  0  0
  2  5  1  0  0  0  0
  2  7  1  0  0  0  0
  3  4  1  6  0  0  0
  3  9  1  0  0  0  0
  3  2  1  0  0  0  0
  3  5  1  0  0  0  0
  4  9  1  0  0  0  0
  4  8  1  0  0  0  0
  4  1  1  0  0  0  0
  4  5  1  0  0  0  0
  4  6  1  0  0  0  0
  5  6  1  0  0  0  0
  5  7  1  0  0  0  0
  6  7  1  0  0  0  0
  8  1  1  0  0  0  0
  8  6  1  0  0  0  0
  9  1  1  0  0  0  0
  9  7  1  0  0  0  0
M  END
$$$$
Individuo 5 F= -.21277895E+02 E0= -.21262571E+02 d E =-.988702E-04
 OpenBabel06261319333D

  9 21  0  0  0  0  0  0  0  0999 V2000
   -1.1290    0.0267    2.4880 Cu  0  0  1  0  0  0  0  0  0  0  0  0
    0.8859   -2.2647    0.1167 Cu  0  0  2  0  0  0  0  0  0  0  0  0
   -1.0464   -0.7345    0.1576 Cu  0  0  0  0  0  0  0  0  0  0  0  0
    1.0704   -0.1445    1.3662 Cu  0  0  0  0  0  0  0  0  0  0  0  0
   -0.5653    1.5944    0.8238 Cu  0  0  0  0  0  0  0  0  0  0  0  0
    1.5969    1.8249   -0.1046 Cu  0  0  2  0  0  0  0  0  0  0  0  0
   -0.8906    1.1354   -1.4707 Cu  0  0  1  0  0  0  0  0  0  0  0  0
    1.0002   -0.2396   -1.0918 Cu  0  0  0  0  0  0  0  0  0  0  0  0
   -0.3014   -2.1714    2.1673 Cu  0  0  0  0  0  0  0  0  0  0  0  0
  1  3  1  6  0  0  0
  2  8  1  6  0  0  0
  2  3  1  0  0  0  0
  2  4  1  0  0  0  0
  2  9  1  0  0  0  0
  3  5  1  0  0  0  0
  3  4  1  0  0  0  0
  4  1  1  0  0  0  0
  5  4  1  0  0  0  0
  5  1  1  0  0  0  0
  6  8  1  6  0  0  0
  6  5  1  0  0  0  0
  6  4  1  0  0  0  0
  7  8  1  6  0  0  0
  7  6  1  0  0  0  0
  7  3  1  0  0  0  0
  7  5  1  0  0  0  0
  8  3  1  0  0  0  0
  8  5  1  0  0  0  0
  8  4  1  0  0  0  0
  9  1  1  0  0  0  0
M  END
$$$$
Individuo 6 F= -.20968438E+02 E0= -.20956185E+02 d E =-.653880E-04
 OpenBabel06261319333D

  9 21  0  0  0  0  0  0  0  0999 V2000
   -0.5488    1.6994   -1.1298 Cu  0  0  1  0  0  0  0  0  0  0  0  0
    0.5876   -1.5496    1.9910 Cu  0  0  2  0  0  0  0  0  0  0  0  0
    2.1734    0.1685    1.3224 Cu  0  0  1  0  0  0  0  0  0  0  0  0
   -2.0962   -0.0173   -0.4329 Cu  0  0  1  0  0  0  0  0  0  0  0  0
    1.3114    0.1370   -0.9487 Cu  0  0  0  0  0  0  0  0  0  0  0  0
   -0.1887    0.5260    0.9746 Cu  0  0  0  0  0  0  0  0  0  0  0  0
   -0.2859   -1.6178   -0.2602 Cu  0  0  0  0  0  0  0  0  0  0  0  0
   -0.6032   -0.4104   -2.3218 Cu  0  0  2  0  0  0  0  0  0  0  0  0
    2.0905   -1.9094    0.1133 Cu  0  0  2  0  0  0  0  0  0  0  0  0
  1  5  1  6  0  0  0
  1  4  1  0  0  0  0
  1  6  1  0  0  0  0
  2  7  1  1  0  0  0
  3  5  1  6  0  0  0
  3  2  1  0  0  0  0
  4  7  1  1  0  0  0
  4  6  1  0  0  0  0
  5  7  1  0  0  0  0
  5  6  1  0  0  0  0
  6  3  1  0  0  0  0
  6  2  1  0  0  0  0
  7  9  1  0  0  0  0
  7  6  1  0  0  0  0
  8  1  1  0  0  0  0
  8  5  1  1  0  0  0
  8  4  1  0  0  0  0
  8  7  1  0  0  0  0
  9  5  1  1  0  0  0
  9  3  1  0  0  0  0
  9  2  1  0  0  0  0
M  END
$$$$
Individuo 7 F= -.21378379E+02 E0= -.21367056E+02 d E =-.543625E-04
 OpenBabel06261319333D

  9 21  0  0  0  0  0  0  0  0999 V2000
   -1.1145    0.5223   -0.7524 Cu  0  0  0  0  0  0  0  0  0  0  0  0
    1.9049   -0.7301    1.4056 Cu  0  0  2  0  0  0  0  0  0  0  0  0
   -0.4467   -0.1708    1.4620 Cu  0  0  0  0  0  0  0  0  0  0  0  0
    0.2885   -2.5404    1.2725 Cu  0  0  2  0  0  0  0  0  0  0  0  0
   -1.5824   -1.7187   -0.0330 Cu  0  0  1  0  0  0  0  0  0  0  0  0
    1.1079    1.1297    0.1172 Cu  0  0  0  0  0  0  0  0  0  0  0  0
    0.8381    0.5722   -2.2712 Cu  0  0  1  0  0  0  0  0  0  0  0  0
    0.7154   -1.1949   -0.6933 Cu  0  0  0  0  0  0  0  0  0  0  0  0
   -0.1146    2.6134   -1.3132 Cu  0  0  0  0  0  0  0  0  0  0  0  0
  1  8  1  0  0  0  0
  1  6  1  0  0  0  0
  1  3  1  0  0  0  0
  2  8  1  6  0  0  0
  2  3  1  0  0  0  0
  4  8  1  6  0  0  0
  4  2  1  0  0  0  0
  4  3  1  0  0  0  0
  5  1  1  6  0  0  0
  5  4  1  0  0  0  0
  5  3  1  0  0  0  0
  6  2  1  0  0  0  0
  6  3  1  0  0  0  0
  7  9  1  6  0  0  0
  7  1  1  0  0  0  0
  7  8  1  0  0  0  0
  7  6  1  0  0  0  0
  8  5  1  0  0  0  0
  8  6  1  0  0  0  0
  9  1  1  0  0  0  0
  9  6  1  0  0  0  0
M  END
$$$$
Individuo 8 F= -.21383309E+02 E0= -.21370420E+02 d E =-.722196E-04
 OpenBabel06261319333D

  9 21  0  0  0  0  0  0  0  0999 V2000
   -1.4062   -0.7292   -1.3382 Cu  0  0  0  0  0  0  0  0  0  0  0  0
   -0.6035    1.3176   -0.3554 Cu  0  0  0  0  0  0  0  0  0  0  0  0
    0.8771   -0.0112   -1.7386 Cu  0  0  0  0  0  0  0  0  0  0  0  0
    0.4130   -1.0263    0.4190 Cu  0  0  0  0  0  0  0  0  0  0  0  0
    1.8158    0.9195    0.2969 Cu  0  0  0  0  0  0  0  0  0  0  0  0
   -1.4239   -2.5565    0.2672 Cu  0  0  0  0  0  0  0  0  0  0  0  0
    0.0264    0.8359    1.9740 Cu  0  0  0  0  0  0  0  0  0  0  0  0
   -1.8624   -0.2942    1.0026 Cu  0  0  0  0  0  0  0  0  0  0  0  0
    0.6056    2.9259    0.9412 Cu  0  0  0  0  0  0  0  0  0  0  0  0
  1  2  1  0  0  0  0
  1  6  1  0  0  0  0
  1  4  1  0  0  0  0
  1  8  1  0  0  0  0
  2  5  1  0  0  0  0
  2  9  1  0  0  0  0
  2  8  1  0  0  0  0
  2  7  1  0  0  0  0
  3  1  1  0  0  0  0
  3  2  1  0  0  0  0
  3  5  1  0  0  0  0
  3  4  1  0  0  0  0
  4  8  1  0  0  0  0
  4  7  1  0  0  0  0
  5  4  1  0  0  0  0
  5  9  1  0  0  0  0
  5  7  1  0  0  0  0
  6  4  1  0  0  0  0
  6  8  1  0  0  0  0
  8  7  1  0  0  0  0
  9  7  1  0  0  0  0
M  END
$$$$
Individuo 9 F= -.21278929E+02 E0= -.21266665E+02 d E =-.971789E-04
 OpenBabel06261319333D

  9 20  0  0  0  0  0  0  0  0999 V2000
    1.5342    0.5381    0.8669 Cu  0  0  0  0  0  0  0  0  0  0  0  0
   -1.8261   -1.7169    0.7359 Cu  0  0  0  0  0  0  0  0  0  0  0  0
    0.4047   -0.7370   -2.7768 Cu  0  0  0  0  0  0  0  0  0  0  0  0
    1.1968    1.2161   -1.5020 Cu  0  0  0  0  0  0  0  0  0  0  0  0
    1.8393   -1.1162   -0.8743 Cu  0  0  0  0  0  0  0  0  0  0  0  0
   -0.1766    2.1003    0.2636 Cu  0  0  0  0  0  0  0  0  0  0  0  0
   -0.4768   -0.2569   -0.5982 Cu  0  0  0  0  0  0  0  0  0  0  0  0
   -0.7911    0.2959    1.7315 Cu  0  0  0  0  0  0  0  0  0  0  0  0
    0.5658   -1.6886    1.1246 Cu  0  0  0  0  0  0  0  0  0  0  0  0
  1  9  1  0  0  0  0
  1  8  1  0  0  0  0
  2  9  1  0  0  0  0
  2  8  1  0  0  0  0
  3  4  1  0  0  0  0
  3  5  1  0  0  0  0
  3  7  1  0  0  0  0
  4  5  1  0  0  0  0
  4  7  1  0  0  0  0
  4  6  1  0  0  0  0
  4  1  1  0  0  0  0
  5  7  1  0  0  0  0
  5  1  1  0  0  0  0
  5  9  1  0  0  0  0
  6  1  1  0  0  0  0
  6  8  1  0  0  0  0
  7  2  1  0  0  0  0
  7  9  1  0  0  0  0
  7  8  1  0  0  0  0
  9  8  1  0  0  0  0
M  END
$$$$
Individuo 10 F= -.21453160E+02 E0= -.21435493E+02 d E =-.463440E-04
 OpenBabel06261319333D

  9 21  0  0  0  0  0  0  0  0999 V2000
    0.7190   -1.1275    2.5998 Cu  0  0  0  0  0  0  0  0  0  0  0  0
   -0.8227   -0.0089    1.1254 Cu  0  0  0  0  0  0  0  0  0  0  0  0
    1.6348    0.4588    1.0397 Cu  0  0  0  0  0  0  0  0  0  0  0  0
    0.0139    2.1932    0.6834 Cu  0  0  0  0  0  0  0  0  0  0  0  0
    0.2999    0.4687   -1.0172 Cu  0  0  0  0  0  0  0  0  0  0  0  0
   -1.3313   -1.2967   -0.8834 Cu  0  0  1  0  0  0  0  0  0  0  0  0
    0.7518   -1.6991    0.2538 Cu  0  0  0  0  0  0  0  0  0  0  0  0
    0.6975   -1.6828   -2.2250 Cu  0  0  2  0  0  0  0  0  0  0  0  0
    2.4863   -0.5532   -0.9968 Cu  0  0  2  0  0  0  0  0  0  0  0  0
  2  1  1  0  0  0  0
  3  2  1  0  0  0  0
  3  1  1  0  0  0  0
  4  3  1  0  0  0  0
  4  2  1  0  0  0  0
  5  4  1  0  0  0  0
  5  3  1  0  0  0  0
  5  2  1  0  0  0  0
  6  5  1  6  0  0  0
  6  7  1  0  0  0  0
  6  2  1  0  0  0  0
  7  3  1  0  0  0  0
  7  2  1  0  0  0  0
  7  1  1  0  0  0  0
  8  5  1  1  0  0  0
  8  9  1  0  0  0  0
  8  6  1  0  0  0  0
  8  7  1  0  0  0  0
  9  5  1  1  0  0  0
  9  7  1  0  0  0  0
  9  3  1  0  0  0  0
M  END
$$$$
Individuo 11 F= -.21259418E+02 E0= -.21239002E+02 d E =0.310615E-05
 OpenBabel06261319333D

  9 21  0  0  0  0  0  0  0  0999 V2000
    0.8544   -0.7838   -1.1948 Cu  0  0  0  0  0  0  0  0  0  0  0  0
    0.0015    1.4993   -1.4530 Cu  0  0  0  0  0  0  0  0  0  0  0  0
   -1.1948    0.1378    2.0461 Cu  0  0  2  0  0  0  0  0  0  0  0  0
    2.4599   -1.0525    0.5828 Cu  0  0  0  0  0  0  0  0  0  0  0  0
    0.8245    0.7360    0.7195 Cu  0  0  0  0  0  0  0  0  0  0  0  0
   -1.1421    2.1316    0.5995 Cu  0  0  2  0  0  0  0  0  0  0  0  0
   -0.9826   -0.3279   -2.7119 Cu  0  0  0  0  0  0  0  0  0  0  0  0
    0.1402   -1.6098    0.9970 Cu  0  0  0  0  0  0  0  0  0  0  0  0
   -1.3500   -0.1757   -0.3176 Cu  0  0  0  0  0  0  0  0  0  0  0  0
  1  9  1  0  0  0  0
  1  4  1  0  0  0  0
  1  5  1  0  0  0  0
  1  8  1  0  0  0  0
  2  1  1  0  0  0  0
  2  9  1  0  0  0  0
  2  5  1  0  0  0  0
  3  9  1  6  0  0  0
  4  5  1  0  0  0  0
  4  8  1  0  0  0  0
  5  8  1  0  0  0  0
  5  3  1  0  0  0  0
  6  2  1  6  0  0  0
  6  5  1  0  0  0  0
  6  3  1  0  0  0  0
  7  2  1  0  0  0  0
  7  1  1  0  0  0  0
  7  9  1  0  0  0  0
  8  3  1  0  0  0  0
  9  6  1  0  0  0  0
  9  8  1  0  0  0  0
M  END
$$$$
Individuo 12 F= -.21294987E+02 E0= -.21287687E+02 d E =-.594060E-04
 OpenBabel06261319333D

  9 21  0  0  0  0  0  0  0  0999 V2000
   -0.7552   -1.0002    1.3411 Cu  0  0  0  0  0  0  0  0  0  0  0  0
   -2.1726    1.0274   -2.0132 Cu  0  0  0  0  0  0  0  0  0  0  0  0
   -1.0193   -0.9256   -1.1326 Cu  0  0  0  0  0  0  0  0  0  0  0  0
    0.1085    1.1858   -1.1743 Cu  0  0  0  0  0  0  0  0  0  0  0  0
    2.2786    1.4516   -0.1206 Cu  0  0  0  0  0  0  0  0  0  0  0  0
   -1.8444    0.8999    0.3506 Cu  0  0  0  0  0  0  0  0  0  0  0  0
    1.1703   -0.7147   -0.1730 Cu  0  0  0  0  0  0  0  0  0  0  0  0
   -0.0182   -2.8390   -0.0031 Cu  0  0  0  0  0  0  0  0  0  0  0  0
    0.3695    1.1356    1.2932 Cu  0  0  0  0  0  0  0  0  0  0  0  0
  2  4  1  0  0  0  0
  2  3  1  0  0  0  0
  2  6  1  0  0  0  0
  3  7  1  0  0  0  0
  3  8  1  0  0  0  0
  3  6  1  0  0  0  0
  3  1  1  0  0  0  0
  4  3  1  0  0  0  0
  4  7  1  0  0  0  0
  4  5  1  0  0  0  0
  4  6  1  0  0  0  0
  4  9  1  0  0  0  0
  5  9  1  0  0  0  0
  6  9  1  0  0  0  0
  6  1  1  0  0  0  0
  7  5  1  0  0  0  0
  7  8  1  0  0  0  0
  7  9  1  0  0  0  0
  7  1  1  0  0  0  0
  8  1  1  0  0  0  0
  9  1  1  0  0  0  0
M  END
$$$$
Individuo 13 F= -.20697228E+02 E0= -.20687939E+02 d E =-.425728E-04
 OpenBabel06261319333D

  9 21  0  0  0  0  0  0  0  0999 V2000
   -1.0386    0.0362   -3.0354 Cu  0  0  0  0  0  0  0  0  0  0  0  0
    0.2830    1.9872    1.0806 Cu  0  0  0  0  0  0  0  0  0  0  0  0
   -0.6113   -0.3993    0.8519 Cu  0  0  0  0  0  0  0  0  0  0  0  0
    1.1744    0.7527   -2.4479 Cu  0  0  2  0  0  0  0  0  0  0  0  0
    0.0195   -1.1778   -1.2826 Cu  0  0  0  0  0  0  0  0  0  0  0  0
   -0.6102    1.2530   -0.9790 Cu  0  0  0  0  0  0  0  0  0  0  0  0
    1.2759   -0.0096    2.2449 Cu  0  0  1  0  0  0  0  0  0  0  0  0
    1.5759    0.3025   -0.1260 Cu  0  0  0  0  0  0  0  0  0  0  0  0
   -0.8581    0.8927    2.8749 Cu  0  0  0  0  0  0  0  0  0  0  0  0
  1  5  1  0  0  0  0
  1  6  1  0  0  0  0
  2  7  1  0  0  0  0
  2  9  1  0  0  0  0
  3  2  1  0  0  0  0
  3  7  1  0  0  0  0
  3  9  1  0  0  0  0
  4  1  1  6  0  0  0
  4  5  1  0  0  0  0
  4  6  1  0  0  0  0
  4  8  1  0  0  0  0
  5  6  1  0  0  0  0
  5  8  1  0  0  0  0
  5  3  1  0  0  0  0
  6  8  1  0  0  0  0
  6  3  1  0  0  0  0
  6  2  1  0  0  0  0
  7  8  1  1  0  0  0
  7  9  1  0  0  0  0
  8  3  1  0  0  0  0
  8  2  1  0  0  0  0
M  END
$$$$
Individuo 14 F= -.20845983E+02 E0= -.20834033E+02 d E =-.884504E-04
 OpenBabel06261319333D

  9 20  0  0  0  0  0  0  0  0999 V2000
    1.9009    0.5537    0.7248 Cu  0  0  0  0  0  0  0  0  0  0  0  0
    0.0178    1.6057    1.8643 Cu  0  0  1  0  0  0  0  0  0  0  0  0
   -0.1359   -0.6261    1.1113 Cu  0  0  0  0  0  0  0  0  0  0  0  0
   -0.0928   -2.6474   -0.1217 Cu  0  0  1  0  0  0  0  0  0  0  0  0
   -1.4057   -0.6942   -1.0379 Cu  0  0  0  0  0  0  0  0  0  0  0  0
    1.0456   -0.7556   -1.1171 Cu  0  0  0  0  0  0  0  0  0  0  0  0
    1.3349    2.8852    0.3173 Cu  0  0  0  0  0  0  0  0  0  0  0  0
   -2.1368   -1.9098    0.8961 Cu  0  0  0  0  0  0  0  0  0  0  0  0
   -0.1811    1.2745   -0.5719 Cu  0  0  0  0  0  0  0  0  0  0  0  0
  1  3  1  0  0  0  0
  1  2  1  0  0  0  0
  2  9  1  6  0  0  0
  3  2  1  0  0  0  0
  4  6  1  6  0  0  0
  4  8  1  0  0  0  0
  4  3  1  0  0  0  0
  5  9  1  0  0  0  0
  5  4  1  0  0  0  0
  5  8  1  0  0  0  0
  5  3  1  0  0  0  0
  6  5  1  0  0  0  0
  6  9  1  0  0  0  0
  6  1  1  0  0  0  0
  6  3  1  0  0  0  0
  7  1  1  0  0  0  0
  7  2  1  0  0  0  0
  8  3  1  0  0  0  0
  9  7  1  0  0  0  0
  9  1  1  0  0  0  0
M  END
$$$$
Individuo 15 F= -.20825912E+02 E0= -.20816294E+02 d E =-.556457E-04
 OpenBabel06261319333D

  9 19  0  0  0  0  0  0  0  0999 V2000
    1.1168   -1.7801    0.2330 Cu  0  0  0  0  0  0  0  0  0  0  0  0
   -0.1181   -0.4525    1.8216 Cu  0  0  2  0  0  0  0  0  0  0  0  0
    2.2567   -0.2646   -1.3132 Cu  0  0  2  0  0  0  0  0  0  0  0  0
   -1.3063    2.1608   -0.9963 Cu  0  0  0  0  0  0  0  0  0  0  0  0
    0.1125    1.8890    1.0074 Cu  0  0  0  0  0  0  0  0  0  0  0  0
    0.4602   -1.6196   -2.1640 Cu  0  0  0  0  0  0  0  0  0  0  0  0
    1.9952    0.4120    0.9734 Cu  0  0  1  0  0  0  0  0  0  0  0  0
   -1.9568    0.5761    0.6809 Cu  0  0  1  0  0  0  0  0  0  0  0  0
   -0.0109    0.1633   -0.6610 Cu  0  0  0  0  0  0  0  0  0  0  0  0
  2  1  1  6  0  0  0
  3  6  1  6  0  0  0
  3  9  1  0  0  0  0
  3  1  1  0  0  0  0
  3  7  1  0  0  0  0
  4  9  1  0  0  0  0
  4  5  1  0  0  0  0
  5  2  1  0  0  0  0
  6  9  1  0  0  0  0
  6  1  1  0  0  0  0
  7  1  1  6  0  0  0
  7  5  1  0  0  0  0
  7  2  1  0  0  0  0
  8  4  1  6  0  0  0
  8  5  1  0  0  0  0
  8  2  1  0  0  0  0
  9  1  1  0  0  0  0
  9  8  1  0  0  0  0
  9  5  1  0  0  0  0
M  END
$$$$
Individuo 16 F= -.21041896E+02 E0= -.21025986E+02 d E =-.685958E-04
 OpenBabel06261319333D

  9 20  0  0  0  0  0  0  0  0999 V2000
    1.3583    2.7928   -0.7523 Cu  0  0  0  0  0  0  0  0  0  0  0  0
    0.1052   -1.6550    0.5534 Cu  0  0  0  0  0  0  0  0  0  0  0  0
    1.0196    0.4585   -0.1966 Cu  0  0  0  0  0  0  0  0  0  0  0  0
    0.3435    2.1390    1.3348 Cu  0  0  1  0  0  0  0  0  0  0  0  0
   -2.2993   -1.6299    0.2670 Cu  0  0  0  0  0  0  0  0  0  0  0  0
   -1.1942    0.3507    0.9875 Cu  0  0  0  0  0  0  0  0  0  0  0  0
    1.1870   -1.4319   -1.5841 Cu  0  0  0  0  0  0  0  0  0  0  0  0
   -1.0111   -0.4360   -1.3863 Cu  0  0  0  0  0  0  0  0  0  0  0  0
   -0.8617    1.8931   -0.8952 Cu  0  0  0  0  0  0  0  0  0  0  0  0
  1  3  1  0  0  0  0
  1  4  1  0  0  0  0
  2  6  1  0  0  0  0
  3  2  1  0  0  0  0
  3  6  1  0  0  0  0
  3  4  1  0  0  0  0
  4  9  1  6  0  0  0
  5  2  1  0  0  0  0
  5  6  1  0  0  0  0
  6  4  1  0  0  0  0
  7  8  1  0  0  0  0
  7  3  1  0  0  0  0
  7  2  1  0  0  0  0
  8  9  1  0  0  0  0
  8  5  1  0  0  0  0
  8  2  1  0  0  0  0
  8  6  1  0  0  0  0
  9  1  1  0  0  0  0
  9  3  1  0  0  0  0
  9  6  1  0  0  0  0
M  END
$$$$
Individuo 17 F= -.20940132E+02 E0= -.20915862E+02 d E =-.701209E-04
 OpenBabel06261319333D

  9 20  0  0  0  0  0  0  0  0999 V2000
   -0.0205   -1.8836   -1.5619 Cu  0  0  1  0  0  0  0  0  0  0  0  0
   -0.6400   -1.2184    0.7084 Cu  0  0  0  0  0  0  0  0  0  0  0  0
    1.3793   -0.3088   -0.3857 Cu  0  0  0  0  0  0  0  0  0  0  0  0
    1.2943   -2.5834    0.4057 Cu  0  0  0  0  0  0  0  0  0  0  0  0
    2.2913    1.5859    0.7954 Cu  0  0  0  0  0  0  0  0  0  0  0  0
    0.8509    1.9014   -1.1717 Cu  0  0  2  0  0  0  0  0  0  0  0  0
   -0.0582    1.1553    0.9695 Cu  0  0  0  0  0  0  0  0  0  0  0  0
   -0.9385    0.3085   -1.2545 Cu  0  0  0  0  0  0  0  0  0  0  0  0
   -2.3191    0.4555    0.7465 Cu  0  0  0  0  0  0  0  0  0  0  0  0
  1  8  1  6  0  0  0
  1  3  1  0  0  0  0
  1  4  1  0  0  0  0
  1  2  1  0  0  0  0
  2  9  1  0  0  0  0
  2  7  1  0  0  0  0
  3  4  1  0  0  0  0
  3  2  1  0  0  0  0
  3  5  1  0  0  0  0
  3  7  1  0  0  0  0
  4  2  1  0  0  0  0
  5  7  1  0  0  0  0
  6  8  1  6  0  0  0
  6  3  1  0  0  0  0
  6  5  1  0  0  0  0
  6  7  1  0  0  0  0
  8  2  1  0  0  0  0
  8  9  1  0  0  0  0
  8  7  1  0  0  0  0
  9  7  1  0  0  0  0
M  END
