# 1 E = -1839.9790447956702
 OpenBabel06261319333D

  9 21  0  0  0  0  0  0  0  0999 V2000
    1.8292    0.0456   -1.5634 Cu  0  0  1  0  0  0  0  0  0  0  0  0
    0.9762   -0.2273    2.3814 Cu  0  0  2  0  0  0  0  0  0  0  0  0
    1.4367   -1.3431    0.3297 Cu  0  0  0  0  0  0  0  0  0  0  0  0
    0.7009    0.9627    0.3301 Cu  0  0  0  0  0  0  0  0  0  0  0  0
   -0.0826    1.3928   -1.8837 Cu  0  0  1  0  0  0  0  0  0  0  0  0
   -0.9356    1.1199    2.0612 Cu  0  0  2  0  0  0  0  0  0  0  0  0
   -1.6599    0.8390   -0.1890 Cu  0  0  0  0  0  0  0  0  0  0  0  0
   -0.8340   -1.0359    1.0854 Cu  0  0  0  0  0  0  0  0  0  0  0  0
   -0.3300   -0.8747   -1.2453 Cu  0  0  0  0  0  0  0  0  0  0  0  0
  1  9  1  1  0  0  0
  1  3  1  0  0  0  0
  1  4  1  0  0  0  0
  2  3  1  1  0  0  0
  3  4  1  0  0  0  0
  3  8  1  0  0  0  0
  4  6  1  0  0  0  0
  4  2  1  0  0  0  0
  5  1  1  0  0  0  0
  5  9  1  1  0  0  0
  5  7  1  0  0  0  0
  5  4  1  0  0  0  0
  6  7  1  1  0  0  0
  6  2  1  0  0  0  0
  7  4  1  0  0  0  0
  7  8  1  0  0  0  0
  8  6  1  0  0  0  0
  8  2  1  0  0  0  0
  9  7  1  0  0  0  0
  9  3  1  0  0  0  0
  9  8  1  0  0  0  0
M  END
$$$$
# 2 E = -1837.077467190341
 OpenBabel06261319333D

  9 21  0  0  0  0  0  0  0  0999 V2000
   -0.9197    1.4545   -0.1766 Cu  0  0  0  0  0  0  0  0  0  0  0  0
   -1.2788    0.0787   -2.0733 Cu  0  0  0  0  0  0  0  0  0  0  0  0
   -1.1093   -0.9160    0.0718 Cu  0  0  0  0  0  0  0  0  0  0  0  0
    0.6297   -1.2244   -1.5449 Cu  0  0  0  0  0  0  0  0  0  0  0  0
   -0.3493    0.4182    1.8778 Cu  0  0  0  0  0  0  0  0  0  0  0  0
    1.3656    1.3457    0.5293 Cu  0  0  0  0  0  0  0  0  0  0  0  0
    2.6089   -0.1064   -0.8725 Cu  0  0  0  0  0  0  0  0  0  0  0  0
    0.8192    1.1461   -1.7933 Cu  0  0  0  0  0  0  0  0  0  0  0  0
    1.1760   -1.0248    0.7776 Cu  0  0  0  0  0  0  0  0  0  0  0  0
  1  3  1  0  0  0  0
  1  6  1  0  0  0  0
  1  5  1  0  0  0  0
  2  8  1  0  0  0  0
  2  4  1  0  0  0  0
  2  1  1  0  0  0  0
  2  3  1  0  0  0  0
  3  9  1  0  0  0  0
  3  5  1  0  0  0  0
  4  7  1  0  0  0  0
  4  3  1  0  0  0  0
  4  9  1  0  0  0  0
  6  9  1  0  0  0  0
  6  5  1  0  0  0  0
  7  6  1  0  0  0  0
  7  9  1  0  0  0  0
  8  4  1  0  0  0  0
  8  7  1  0  0  0  0
  8  1  1  0  0  0  0
  8  6  1  0  0  0  0
  9  5  1  0  0  0  0
M  END
$$$$
# 3 E = -1826.2970567659664
 OpenBabel06261319333D

  9 21  0  0  0  0  0  0  0  0999 V2000
   -2.1251    1.3107    1.3324 Cu  0  0  1  0  0  0  0  0  0  0  0  0
   -1.1040   -1.1462   -1.7069 Cu  0  0  0  0  0  0  0  0  0  0  0  0
   -1.3564   -0.8063    0.5864 Cu  0  0  0  0  0  0  0  0  0  0  0  0
    0.6212    0.0739   -0.7142 Cu  0  0  0  0  0  0  0  0  0  0  0  0
    1.8909    0.7001    1.1993 Cu  0  0  2  0  0  0  0  0  0  0  0  0
   -1.5877    1.0327   -0.9652 Cu  0  0  0  0  0  0  0  0  0  0  0  0
    0.8749   -1.4219    1.1056 Cu  0  0  2  0  0  0  0  0  0  0  0  0
   -0.1662    0.3609    2.3079 Cu  0  0  0  0  0  0  0  0  0  0  0  0
   -0.0029    1.9981    0.5653 Cu  0  0  0  0  0  0  0  0  0  0  0  0
  1  6  1  1  0  0  0
  1  8  1  0  0  0  0
  2  6  1  0  0  0  0
  2  4  1  0  0  0  0
  2  3  1  0  0  0  0
  3  7  1  0  0  0  0
  3  1  1  0  0  0  0
  3  8  1  0  0  0  0
  4  9  1  0  0  0  0
  4  3  1  0  0  0  0
  5  4  1  6  0  0  0
  5  8  1  0  0  0  0
  6  4  1  0  0  0  0
  6  9  1  0  0  0  0
  6  3  1  0  0  0  0
  7  4  1  6  0  0  0
  7  5  1  0  0  0  0
  7  8  1  0  0  0  0
  9  5  1  0  0  0  0
  9  1  1  0  0  0  0
  9  8  1  0  0  0  0
M  END
$$$$
# 4 E = -1825.3602645006073
 OpenBabel06261319333D

  9 22  0  0  0  0  0  0  0  0999 V2000
    0.7062   -1.6161    0.9014 Cu  0  0  0  0  0  0  0  0  0  0  0  0
   -2.6365    0.7334    0.6452 Cu  0  0  1  0  0  0  0  0  0  0  0  0
   -1.4103    1.1293   -1.3162 Cu  0  0  1  0  0  0  0  0  0  0  0  0
    0.7173    0.2833   -0.6236 Cu  0  0  0  0  0  0  0  0  0  0  0  0
   -0.5219    1.7968    0.7757 Cu  0  0  0  0  0  0  0  0  0  0  0  0
    1.3102    0.5738    1.7211 Cu  0  0  0  0  0  0  0  0  0  0  0  0
   -0.9232   -0.2363    1.9732 Cu  0  0  0  0  0  0  0  0  0  0  0  0
    2.7017   -0.5976    0.2676 Cu  0  0  0  0  0  0  0  0  0  0  0  0
   -1.2909   -0.9915   -0.2679 Cu  0  0  0  0  0  0  0  0  0  0  0  0
  1  6  1  0  0  0  0
  1  7  1  0  0  0  0
  2  9  1  6  0  0  0
  2  5  1  0  0  0  0
  2  7  1  0  0  0  0
  3  4  1  6  0  0  0
  3  9  1  0  0  0  0
  3  2  1  0  0  0  0
  3  5  1  0  0  0  0
  4  9  1  0  0  0  0
  4  8  1  0  0  0  0
  4  5  1  0  0  0  0
  4  1  1  0  0  0  0
  4  6  1  0  0  0  0
  5  6  1  0  0  0  0
  5  7  1  0  0  0  0
  6  7  1  0  0  0  0
  8  1  1  0  0  0  0
  8  6  1  0  0  0  0
  9  5  1  0  0  0  0
  9  1  1  0  0  0  0
  9  7  1  0  0  0  0
M  END
$$$$
# 5 E = -1825.2752963210273
 OpenBabel06261319333D

  9 20  0  0  0  0  0  0  0  0999 V2000
   -1.0897   -0.0406    2.5336 Cu  0  0  1  0  0  0  0  0  0  0  0  0
    0.9194   -2.2543    0.0764 Cu  0  0  2  0  0  0  0  0  0  0  0  0
   -0.9868   -0.7068    0.1708 Cu  0  0  0  0  0  0  0  0  0  0  0  0
    1.0333   -0.1264    1.2996 Cu  0  0  0  0  0  0  0  0  0  0  0  0
   -0.7062    1.6306    0.9879 Cu  0  0  2  0  0  0  0  0  0  0  0  0
    1.3144    1.7678   -0.1770 Cu  0  0  2  0  0  0  0  0  0  0  0  0
   -0.7062    1.1872   -1.3061 Cu  0  0  1  0  0  0  0  0  0  0  0  0
    1.0696   -0.3261   -1.1841 Cu  0  0  1  0  0  0  0  0  0  0  0  0
   -0.2271   -2.1047    2.0513 Cu  0  0  1  0  0  0  0  0  0  0  0  0
  1  3  1  6  0  0  0
  2  3  1  6  0  0  0
  2  4  1  0  0  0  0
  2  9  1  0  0  0  0
  3  4  1  0  0  0  0
  4  9  1  0  0  0  0
  4  1  1  0  0  0  0
  5  3  1  6  0  0  0
  5  1  1  0  0  0  0
  6  5  1  0  0  0  0
  6  4  1  1  0  0  0
  7  8  1  0  0  0  0
  7  6  1  0  0  0  0
  7  3  1  1  0  0  0
  7  5  1  0  0  0  0
  8  6  1  0  0  0  0
  8  2  1  0  0  0  0
  8  4  1  1  0  0  0
  9  3  1  6  0  0  0
  9  1  1  0  0  0  0
M  END
$$$$
# 6 E = -1824.8467199339044
 OpenBabel06261319333D

  9 21  0  0  0  0  0  0  0  0999 V2000
   -0.5124    1.6336   -1.1292 Cu  0  0  2  0  0  0  0  0  0  0  0  0
    0.6026   -1.4781    1.9606 Cu  0  0  2  0  0  0  0  0  0  0  0  0
    2.1295    0.1778    1.2892 Cu  0  0  1  0  0  0  0  0  0  0  0  0
   -2.0394   -0.0223   -0.4578 Cu  0  0  1  0  0  0  0  0  0  0  0  0
    1.3071    0.1091   -0.9441 Cu  0  0  0  0  0  0  0  0  0  0  0  0
   -0.2022    0.5243    0.9546 Cu  0  0  0  0  0  0  0  0  0  0  0  0
   -0.2916   -1.6246   -0.2412 Cu  0  0  0  0  0  0  0  0  0  0  0  0
   -0.5978   -0.4188   -2.2713 Cu  0  0  2  0  0  0  0  0  0  0  0  0
    2.0442   -1.8746    0.1471 Cu  0  0  2  0  0  0  0  0  0  0  0  0
  1  5  1  1  0  0  0
  1  4  1  0  0  0  0
  1  6  1  0  0  0  0
  2  7  1  1  0  0  0
  3  5  1  6  0  0  0
  3  2  1  0  0  0  0
  4  7  1  1  0  0  0
  4  6  1  0  0  0  0
  5  7  1  0  0  0  0
  5  6  1  0  0  0  0
  6  3  1  0  0  0  0
  6  2  1  0  0  0  0
  7  9  1  0  0  0  0
  7  6  1  0  0  0  0
  8  1  1  0  0  0  0
  8  5  1  1  0  0  0
  8  4  1  0  0  0  0
  8  7  1  0  0  0  0
  9  5  1  1  0  0  0
  9  3  1  0  0  0  0
  9  2  1  0  0  0  0
M  END
$$$$
# 7 E = -1818.2834627523576
 OpenBabel06261319333D

  9 21  0  0  0  0  0  0  0  0999 V2000
   -1.1136    0.4752   -0.8131 Cu  0  0  0  0  0  0  0  0  0  0  0  0
    1.8698   -0.7675    1.3702 Cu  0  0  2  0  0  0  0  0  0  0  0  0
   -0.4479   -0.2042    1.4035 Cu  0  0  0  0  0  0  0  0  0  0  0  0
    0.2676   -2.4738    1.2710 Cu  0  0  2  0  0  0  0  0  0  0  0  0
   -1.5120   -1.7495   -0.0696 Cu  0  0  1  0  0  0  0  0  0  0  0  0
    1.1180    1.1233    0.1370 Cu  0  0  0  0  0  0  0  0  0  0  0  0
    0.8256    0.6844   -2.1937 Cu  0  0  1  0  0  0  0  0  0  0  0  0
    0.7201   -1.1623   -0.6865 Cu  0  0  0  0  0  0  0  0  0  0  0  0
   -0.1309    2.5573   -1.2244 Cu  0  0  0  0  0  0  0  0  0  0  0  0
  1  8  1  0  0  0  0
  1  6  1  0  0  0  0
  1  3  1  0  0  0  0
  2  8  1  6  0  0  0
  2  3  1  0  0  0  0
  4  8  1  6  0  0  0
  4  2  1  0  0  0  0
  4  3  1  0  0  0  0
  5  1  1  6  0  0  0
  5  4  1  0  0  0  0
  5  3  1  0  0  0  0
  6  2  1  0  0  0  0
  6  3  1  0  0  0  0
  7  9  1  6  0  0  0
  7  1  1  0  0  0  0
  7  8  1  0  0  0  0
  7  6  1  0  0  0  0
  8  5  1  0  0  0  0
  8  6  1  0  0  0  0
  9  1  1  0  0  0  0
  9  6  1  0  0  0  0
M  END
$$$$
# 8 E = -1817.1936451021753
 OpenBabel06261319333D

  9 21  0  0  0  0  0  0  0  0999 V2000
   -1.3304   -0.7828   -1.3245 Cu  0  0  0  0  0  0  0  0  0  0  0  0
   -0.5751    1.2958   -0.3618 Cu  0  0  0  0  0  0  0  0  0  0  0  0
    0.8818   -0.0214   -1.7138 Cu  0  0  0  0  0  0  0  0  0  0  0  0
    0.3923   -1.0159    0.3974 Cu  0  0  0  0  0  0  0  0  0  0  0  0
    1.7688    0.9597    0.2549 Cu  0  0  0  0  0  0  0  0  0  0  0  0
   -1.4769   -2.4329    0.3119 Cu  0  0  0  0  0  0  0  0  0  0  0  0
    0.0592    0.7827    1.9548 Cu  0  0  0  0  0  0  0  0  0  0  0  0
   -1.8648   -0.2337    0.9682 Cu  0  0  0  0  0  0  0  0  0  0  0  0
    0.5871    2.8300    0.9816 Cu  0  0  0  0  0  0  0  0  0  0  0  0
  1  2  1  0  0  0  0
  1  6  1  0  0  0  0
  1  4  1  0  0  0  0
  1  8  1  0  0  0  0
  2  5  1  0  0  0  0
  2  8  1  0  0  0  0
  2  9  1  0  0  0  0
  2  7  1  0  0  0  0
  3  1  1  0  0  0  0
  3  2  1  0  0  0  0
  3  5  1  0  0  0  0
  3  4  1  0  0  0  0
  4  8  1  0  0  0  0
  4  7  1  0  0  0  0
  5  4  1  0  0  0  0
  5  9  1  0  0  0  0
  5  7  1  0  0  0  0
  6  4  1  0  0  0  0
  6  8  1  0  0  0  0
  8  7  1  0  0  0  0
  9  7  1  0  0  0  0
M  END
$$$$
# 9 E = -1816.7408532359087
 OpenBabel06261319333D

  9 20  0  0  0  0  0  0  0  0999 V2000
    1.4896    0.5170    0.8286 Cu  0  0  0  0  0  0  0  0  0  0  0  0
   -1.7360   -1.6465    0.8721 Cu  0  0  0  0  0  0  0  0  0  0  0  0
    0.4350   -0.5503   -2.7541 Cu  0  0  0  0  0  0  0  0  0  0  0  0
    1.2438    1.2066   -1.4539 Cu  0  0  1  0  0  0  0  0  0  0  0  0
    1.7719   -1.0928   -0.9281 Cu  0  0  0  0  0  0  0  0  0  0  0  0
   -0.3001    1.9483    0.1898 Cu  0  0  1  0  0  0  0  0  0  0  0  0
   -0.5251   -0.2836   -0.6196 Cu  0  0  0  0  0  0  0  0  0  0  0  0
   -0.6920    0.2292    1.7793 Cu  0  0  0  0  0  0  0  0  0  0  0  0
    0.5833   -1.6930    1.0571 Cu  0  0  0  0  0  0  0  0  0  0  0  0
  1  9  1  0  0  0  0
  1  8  1  0  0  0  0
  2  9  1  0  0  0  0
  2  8  1  0  0  0  0
  3  5  1  0  0  0  0
  3  7  1  0  0  0  0
  4  3  1  6  0  0  0
  4  5  1  0  0  0  0
  4  6  1  0  0  0  0
  4  1  1  0  0  0  0
  5  7  1  0  0  0  0
  5  1  1  0  0  0  0
  5  9  1  0  0  0  0
  6  7  1  6  0  0  0
  6  1  1  0  0  0  0
  6  8  1  0  0  0  0
  7  2  1  0  0  0  0
  7  9  1  0  0  0  0
  7  8  1  0  0  0  0
  9  8  1  0  0  0  0
M  END
$$$$
# 10 E = -1815.6702193539288
 OpenBabel06261319333D

  9 21  0  0  0  0  0  0  0  0999 V2000
    0.6441   -1.0683    2.5328 Cu  0  0  0  0  0  0  0  0  0  0  0  0
   -0.8436   -0.0280    1.0649 Cu  0  0  0  0  0  0  0  0  0  0  0  0
    1.6345    0.4362    1.0476 Cu  0  0  0  0  0  0  0  0  0  0  0  0
    0.0382    2.0971    0.6694 Cu  0  0  0  0  0  0  0  0  0  0  0  0
    0.3261    0.4964   -1.0365 Cu  0  0  0  0  0  0  0  0  0  0  0  0
   -1.2746   -1.2749   -0.9133 Cu  0  0  1  0  0  0  0  0  0  0  0  0
    0.7517   -1.7268    0.2722 Cu  0  0  0  0  0  0  0  0  0  0  0  0
    0.7121   -1.6040   -2.1183 Cu  0  0  2  0  0  0  0  0  0  0  0  0
    2.4609   -0.5753   -0.9393 Cu  0  0  2  0  0  0  0  0  0  0  0  0
  2  1  1  0  0  0  0
  3  2  1  0  0  0  0
  3  1  1  0  0  0  0
  4  3  1  0  0  0  0
  4  2  1  0  0  0  0
  5  4  1  0  0  0  0
  5  3  1  0  0  0  0
  5  2  1  0  0  0  0
  6  5  1  1  0  0  0
  6  7  1  0  0  0  0
  6  2  1  0  0  0  0
  7  3  1  0  0  0  0
  7  2  1  0  0  0  0
  7  1  1  0  0  0  0
  8  5  1  1  0  0  0
  8  9  1  0  0  0  0
  8  6  1  0  0  0  0
  8  7  1  0  0  0  0
  9  5  1  1  0  0  0
  9  7  1  0  0  0  0
  9  3  1  0  0  0  0
M  END
$$$$
# 11 E = -1815.4379178057653
 OpenBabel06261319333D

  9 21  0  0  0  0  0  0  0  0999 V2000
    0.8849   -0.7361   -1.2186 Cu  0  0  0  0  0  0  0  0  0  0  0  0
   -0.0224    1.5111   -1.3979 Cu  0  0  0  0  0  0  0  0  0  0  0  0
   -1.0738    0.1073    2.0229 Cu  0  0  2  0  0  0  0  0  0  0  0  0
    2.3832   -0.9632    0.5719 Cu  0  0  0  0  0  0  0  0  0  0  0  0
    0.8116    0.7707    0.7313 Cu  0  0  0  0  0  0  0  0  0  0  0  0
   -1.2644    1.9517    0.5734 Cu  0  0  2  0  0  0  0  0  0  0  0  0
   -0.9223   -0.2436   -2.6307 Cu  0  0  0  0  0  0  0  0  0  0  0  0
    0.1754   -1.5937    0.9417 Cu  0  0  0  0  0  0  0  0  0  0  0  0
   -1.3612   -0.2492   -0.3265 Cu  0  0  0  0  0  0  0  0  0  0  0  0
  1  9  1  0  0  0  0
  1  4  1  0  0  0  0
  1  5  1  0  0  0  0
  1  8  1  0  0  0  0
  2  1  1  0  0  0  0
  2  9  1  0  0  0  0
  2  5  1  0  0  0  0
  3  9  1  6  0  0  0
  4  5  1  0  0  0  0
  4  8  1  0  0  0  0
  5  8  1  0  0  0  0
  5  3  1  0  0  0  0
  6  2  1  6  0  0  0
  6  5  1  0  0  0  0
  6  3  1  0  0  0  0
  7  2  1  0  0  0  0
  7  1  1  0  0  0  0
  7  9  1  0  0  0  0
  8  3  1  0  0  0  0
  9  6  1  0  0  0  0
  9  8  1  0  0  0  0
M  END
$$$$
# 12 E = -1802.7821673532583
 OpenBabel06261319333D

  9 21  0  0  0  0  0  0  0  0999 V2000
   -0.7447   -0.9850    1.3300 Cu  0  0  0  0  0  0  0  0  0  0  0  0
   -2.1003    0.9883   -1.9659 Cu  0  0  0  0  0  0  0  0  0  0  0  0
   -1.0823   -0.9279   -1.0771 Cu  0  0  0  0  0  0  0  0  0  0  0  0
    0.0895    1.2182   -1.1599 Cu  0  0  0  0  0  0  0  0  0  0  0  0
    2.2146    1.3717   -0.1809 Cu  0  0  0  0  0  0  0  0  0  0  0  0
   -1.7994    0.9130    0.3401 Cu  0  0  0  0  0  0  0  0  0  0  0  0
    1.1709   -0.7276   -0.1450 Cu  0  0  0  0  0  0  0  0  0  0  0  0
   -0.0295   -2.7381   -0.0224 Cu  0  0  0  0  0  0  0  0  0  0  0  0
    0.3983    1.1083    1.2492 Cu  0  0  0  0  0  0  0  0  0  0  0  0
  2  4  1  0  0  0  0
  2  3  1  0  0  0  0
  2  6  1  0  0  0  0
  3  7  1  0  0  0  0
  3  8  1  0  0  0  0
  3  6  1  0  0  0  0
  3  1  1  0  0  0  0
  4  3  1  0  0  0  0
  4  5  1  0  0  0  0
  4  7  1  0  0  0  0
  4  6  1  0  0  0  0
  4  9  1  0  0  0  0
  5  7  1  0  0  0  0
  5  9  1  0  0  0  0
  6  9  1  0  0  0  0
  6  1  1  0  0  0  0
  7  8  1  0  0  0  0
  7  9  1  0  0  0  0
  7  1  1  0  0  0  0
  8  1  1  0  0  0  0
  9  1  1  0  0  0  0
M  END
$$$$
# 13 E = -1797.4992464528779
 OpenBabel06261319333D

  9 21  0  0  0  0  0  0  0  0999 V2000
   -0.9897    0.0738   -2.9801 Cu  0  0  0  0  0  0  0  0  0  0  0  0
    0.2520    1.9368    1.1341 Cu  0  0  0  0  0  0  0  0  0  0  0  0
   -0.6404   -0.3632    0.8226 Cu  0  0  0  0  0  0  0  0  0  0  0  0
    1.1858    0.6627   -2.4431 Cu  0  0  2  0  0  0  0  0  0  0  0  0
    0.0970   -1.1314   -1.3173 Cu  0  0  0  0  0  0  0  0  0  0  0  0
   -0.6098    1.2287   -0.9799 Cu  0  0  0  0  0  0  0  0  0  0  0  0
    1.2390    0.0646    2.2262 Cu  0  0  1  0  0  0  0  0  0  0  0  0
    1.5443    0.3512   -0.1138 Cu  0  0  0  0  0  0  0  0  0  0  0  0
   -0.8677    0.8145    2.8327 Cu  0  0  0  0  0  0  0  0  0  0  0  0
  1  5  1  0  0  0  0
  1  6  1  0  0  0  0
  2  7  1  0  0  0  0
  2  9  1  0  0  0  0
  3  2  1  0  0  0  0
  3  7  1  0  0  0  0
  3  9  1  0  0  0  0
  4  1  1  6  0  0  0
  4  5  1  0  0  0  0
  4  6  1  0  0  0  0
  4  8  1  0  0  0  0
  5  6  1  0  0  0  0
  5  8  1  0  0  0  0
  5  3  1  0  0  0  0
  6  8  1  0  0  0  0
  6  3  1  0  0  0  0
  6  2  1  0  0  0  0
  7  8  1  1  0  0  0
  7  9  1  0  0  0  0
  8  3  1  0  0  0  0
  8  2  1  0  0  0  0
M  END
$$$$
# 14 E = -1796.8655382928256
 OpenBabel06261319333D

  9 20  0  0  0  0  0  0  0  0999 V2000
    1.8805    0.6118    0.7071 Cu  0  0  0  0  0  0  0  0  0  0  0  0
    0.0562    1.6535    1.8364 Cu  0  0  1  0  0  0  0  0  0  0  0  0
   -0.1515   -0.6166    1.1263 Cu  0  0  0  0  0  0  0  0  0  0  0  0
   -0.1471   -2.6210   -0.1902 Cu  0  0  1  0  0  0  0  0  0  0  0  0
   -1.3677   -0.7609   -1.0332 Cu  0  0  1  0  0  0  0  0  0  0  0  0
    1.0276   -0.7548   -1.0377 Cu  0  0  0  0  0  0  0  0  0  0  0  0
    1.3328    2.8342    0.3066 Cu  0  0  0  0  0  0  0  0  0  0  0  0
   -2.0938   -1.9102    0.8508 Cu  0  0  0  0  0  0  0  0  0  0  0  0
   -0.1902    1.2500   -0.5008 Cu  0  0  0  0  0  0  0  0  0  0  0  0
  1  3  1  0  0  0  0
  1  2  1  0  0  0  0
  2  9  1  6  0  0  0
  3  2  1  0  0  0  0
  4  6  1  6  0  0  0
  4  8  1  0  0  0  0
  4  3  1  0  0  0  0
  5  6  1  6  0  0  0
  5  9  1  0  0  0  0
  5  4  1  0  0  0  0
  5  8  1  0  0  0  0
  6  9  1  0  0  0  0
  6  1  1  0  0  0  0
  6  3  1  0  0  0  0
  7  1  1  0  0  0  0
  7  2  1  0  0  0  0
  8  3  1  0  0  0  0
  9  7  1  0  0  0  0
  9  1  1  0  0  0  0
  9  3  1  0  0  0  0
M  END
$$$$
# 15 E = -1795.9449256798954
 OpenBabel06261319333D

  9 19  0  0  0  0  0  0  0  0999 V2000
    1.2697   -1.7472    0.1964 Cu  0  0  2  0  0  0  0  0  0  0  0  0
   -0.1307   -0.5022    1.6574 Cu  0  0  0  0  0  0  0  0  0  0  0  0
    2.2313   -0.2698   -1.4064 Cu  0  0  2  0  0  0  0  0  0  0  0  0
   -1.2092    2.2229   -0.7932 Cu  0  0  0  0  0  0  0  0  0  0  0  0
   -0.0206    1.8391    1.1678 Cu  0  0  1  0  0  0  0  0  0  0  0  0
    0.5104   -1.7055   -2.0007 Cu  0  0  0  0  0  0  0  0  0  0  0  0
    1.8960    0.4814    0.8087 Cu  0  0  0  0  0  0  0  0  0  0  0  0
   -1.9751    0.5785    0.6509 Cu  0  0  1  0  0  0  0  0  0  0  0  0
   -0.0225    0.1873   -0.6991 Cu  0  0  0  0  0  0  0  0  0  0  0  0
  1  6  1  1  0  0  0
  1  7  1  0  0  0  0
  1  2  1  0  0  0  0
  3  6  1  6  0  0  0
  3  9  1  0  0  0  0
  3  1  1  0  0  0  0
  3  7  1  0  0  0  0
  4  9  1  0  0  0  0
  5  4  1  1  0  0  0
  5  2  1  0  0  0  0
  6  9  1  0  0  0  0
  7  5  1  0  0  0  0
  7  2  1  0  0  0  0
  8  4  1  6  0  0  0
  8  5  1  0  0  0  0
  8  2  1  0  0  0  0
  9  8  1  0  0  0  0
  9  7  1  0  0  0  0
  9  2  1  0  0  0  0
M  END
$$$$
# 16 E = -1794.4852505544155
 OpenBabel06261319333D

  9 20  0  0  0  0  0  0  0  0999 V2000
    1.2573    2.6968   -0.7905 Cu  0  0  0  0  0  0  0  0  0  0  0  0
    0.1057   -1.7000    0.4652 Cu  0  0  0  0  0  0  0  0  0  0  0  0
    1.0424    0.4484   -0.1506 Cu  0  0  0  0  0  0  0  0  0  0  0  0
    0.2858    2.2260    1.2651 Cu  0  0  1  0  0  0  0  0  0  0  0  0
   -2.2062   -1.5943    0.2042 Cu  0  0  0  0  0  0  0  0  0  0  0  0
   -1.1105    0.3048    1.0372 Cu  0  0  0  0  0  0  0  0  0  0  0  0
    1.1428   -1.4047   -1.6018 Cu  0  0  0  0  0  0  0  0  0  0  0  0
   -0.9459   -0.3975   -1.3512 Cu  0  0  0  0  0  0  0  0  0  0  0  0
   -0.9240    1.9017   -0.7493 Cu  0  0  2  0  0  0  0  0  0  0  0  0
  1  9  1  0  0  0  0
  1  3  1  0  0  0  0
  2  6  1  0  0  0  0
  3  2  1  0  0  0  0
  3  6  1  0  0  0  0
  3  4  1  0  0  0  0
  4  1  1  1  0  0  0
  5  2  1  0  0  0  0
  5  6  1  0  0  0  0
  6  4  1  0  0  0  0
  7  8  1  0  0  0  0
  7  3  1  0  0  0  0
  7  2  1  0  0  0  0
  8  3  1  0  0  0  0
  8  5  1  0  0  0  0
  8  2  1  0  0  0  0
  8  6  1  0  0  0  0
  9  8  1  6  0  0  0
  9  6  1  0  0  0  0
  9  4  1  0  0  0  0
M  END
$$$$
# 17 E = -1792.5944199765783
 OpenBabel06261319333D

  9 20  0  0  0  0  0  0  0  0999 V2000
   -0.1048   -1.9318   -1.4498 Cu  0  0  1  0  0  0  0  0  0  0  0  0
   -0.6220   -1.1924    0.7565 Cu  0  0  0  0  0  0  0  0  0  0  0  0
    1.3861   -0.3179   -0.4670 Cu  0  0  0  0  0  0  0  0  0  0  0  0
    1.2563   -2.5210    0.3322 Cu  0  0  0  0  0  0  0  0  0  0  0  0
    2.2476    1.5050    0.7349 Cu  0  0  0  0  0  0  0  0  0  0  0  0
    0.8516    1.9525   -1.0614 Cu  0  0  2  0  0  0  0  0  0  0  0  0
   -0.0486    1.1363    0.9894 Cu  0  0  0  0  0  0  0  0  0  0  0  0
   -0.8570    0.3091   -1.2139 Cu  0  0  0  0  0  0  0  0  0  0  0  0
   -2.2698    0.4725    0.6309 Cu  0  0  0  0  0  0  0  0  0  0  0  0
  1  8  1  6  0  0  0
  1  3  1  0  0  0  0
  1  4  1  0  0  0  0
  1  2  1  0  0  0  0
  2  7  1  0  0  0  0
  3  4  1  0  0  0  0
  3  5  1  0  0  0  0
  3  2  1  0  0  0  0
  4  2  1  0  0  0  0
  5  7  1  0  0  0  0
  6  8  1  6  0  0  0
  6  3  1  0  0  0  0
  6  5  1  0  0  0  0
  6  7  1  0  0  0  0
  8  3  1  0  0  0  0
  8  9  1  0  0  0  0
  8  2  1  0  0  0  0
  8  7  1  0  0  0  0
  9  2  1  0  0  0  0
  9  7  1  0  0  0  0
M  END
