14

C	0.645246	-0.130131	0.077087
C	1.25624	-1.48799	0.509428
H	1.68777	-2.00309	-0.364123
H	0.480565	-2.13367	0.950141
H	2.05371	-1.33448	1.25286
Cl	-0.587175	-0.427988	-1.15986
H	1.43556	0.488923	-0.378019
C	0.0307553	0.619706	1.29095
H	-0.787112	0.0166742	1.71883
C	-0.512481	2.01951	0.901733
H	0.805048	0.7478	2.06697
H	-1.3262	1.93577	0.164902
H	0.292048	2.63672	0.472075
H	-0.906896	2.53139	1.7946
