5
r-enan.xyz ---> r-enan_align.xyzMolecule A
Br   -1.93911       0.337389       0.0250033      
H    -0.548088      -0.997259      -1.54889       
F    -0.517156      -1.97025       0.189593       
C    -0.438191      -0.791287      -0.481574      
I    1.34418        0.165332       0.0137559      
