5
s-enan.xyz ---> s-enan_align.xyzMolBcule B
Br   -1.9386        0.337449       -0.0250242     
H    -0.548592      -0.997713      1.54921        
F    -0.517395      -1.97006       -0.189778      
C    -0.438439      -0.79135       0.482016       
I    1.34392        0.165276       -0.0137596     
