5
s-enan.xyz ---> s-enan_align.xyzMolBcule B
Br   -1.68371       -0.29349       0.975538       
C    0.170032       -0.77897       0.644282       
F    0.218135       -2.03066       0.11714        
H    0.667278       -0.797983      1.61691        
I    1.00607        0.568851       -0.705592      
