5
s-enan_invertion.xyz ---> s-enan_invertion_align.xyzMolecule invertion
I    -1.993         0.018          -1.776         
C    -0.025         -0.013         -1.095         
F    -0.02          -0.011         0.264          
H    0.549          -0.877         -1.438         
Br   0.906          1.567          -1.742         
