17
neopentane_Symmetry_out_G09.xyz_operated ---> neopentane_Symmetry_out_G09.xyz_oper_align.xyzMolecule rotated
H    -2.04766888397     0.698604478274     0.34004566737      
H    -1.3845226455      -0.256104163359    1.67758461126      
H    -1.33339293271     -1.12813066617     -1.32161434933     
C    -1.1364362742      0.493047878711     0.915405125344     
H    -0.853967525637    1.41714996097      1.43499162999      
H    -0.670476890034    -2.08490839965     0.0146188063585    
H    -0.560740984771    1.30100809348      -1.67035644813     
C    -0.437794850826    -1.29481575639     -0.71017191284     
C    -9.40183376271e-05 1.85947542512e-05  -8.87301627792e-07 
C    0.317636392305     1.07996341978      -1.05127743947     
H    0.352924264422     -1.67044951946     -1.3714918518      
H    0.634310415211     2.01592547268      -0.574369536126    
H    1.06107591264      -1.04578587258     1.60518391111      
H    1.12466419995      0.756251111287     -1.72038442596     
C    1.25658689307      -0.278197519776    0.84604343407      
H    1.59277628301      0.627697863911     1.36563615454      
H    2.08562984819      -0.631362153604    0.220169411894     
