20
Last coordinate set from file 3NFAACd_opt.log
C -1.217409 2.047268 -0.067947
C -1.199049 0.661811 -0.042896
C -0.011638 -0.081847 -0.002104
C 1.207020 0.620223 -0.020810
C 1.182232 2.022167 -0.033426
C -0.008393 2.731916 -0.059211
N -2.502911 -0.023741 -0.145619
O -3.494828 0.592538 0.210147
O -2.506439 -1.154316 -0.617668
H -2.170996 2.556674 -0.102787
H 0.001730 3.815423 -0.080104
H 2.136569 2.532981 -0.010522
C -0.059463 -1.579851 0.130358
O 0.455077 -2.352097 -0.648283
O -0.654408 -1.962591 1.261297
H -0.666387 -2.933176 1.268630
C 2.613237 0.031847 0.015416
O 3.518402 0.674377 0.482835
O 2.828407 -1.165717 -0.526926
H 2.010556 -1.584463 -0.863372
