20
Last coordinate set from file 3NFAACj_opt.log
C -1.317020 2.010884 -0.096098
C -1.244736 0.626572 -0.027388
C -0.029612 -0.064831 0.016400
C 1.155030 0.689326 -0.025307
C 1.081281 2.086851 -0.077434
C -0.138930 2.745881 -0.119090
N -2.519108 -0.118980 -0.035334
O -2.462166 -1.329591 -0.214900
O -3.549822 0.516948 0.116677
H -2.291171 2.479298 -0.129280
H -0.175195 3.827709 -0.170030
H 2.014496 2.636522 -0.074974
C 0.002447 -1.556325 0.253705
O -0.084271 -2.074364 1.327140
O 0.265371 -2.235072 -0.897817
H 0.280663 -3.178890 -0.668506
C 2.562919 0.129470 0.024457
O 3.464332 0.766289 0.499759
O 2.788306 -1.080472 -0.512997
H 2.002685 -1.448654 -0.948234
