   20
 
 C     0.000000     0.000000     0.000000
 C     0.000000     0.000000     1.391253
 C     1.176592     0.000000     2.144175
 C     2.393118     0.002648     1.435755
 C     2.396916     0.006337     0.037054
 C     1.207922     0.004161    -0.680606
 N    -1.325194     0.010317     2.052702
 O    -1.356153     0.134396     3.267496
 O    -2.310778    -0.098867     1.336680
 H    -0.950404    -0.002472    -0.515482
 H     1.221858     0.006809    -1.764067
 H     3.347056     0.010235    -0.480272
 C     1.164807    -0.106215     3.657810
 O     1.144864    -1.157602     4.233639
 O     1.199625     1.101964     4.234759
 H     1.216831     0.950924     5.192378
 C     3.687343     0.008281     2.181443
 O     3.801649     0.046607     3.380456
 O     4.756039    -0.031611     1.354087
 H     5.537226    -0.023973     1.926513
