20
Last coordinate set from file 3NFAACi_opt.log
C 1.208399 2.021322 -0.121077
C 1.197079 0.636566 -0.058972
C 0.023685 -0.121062 0.006478
C -1.190478 0.592245 -0.021960
C -1.187929 1.992991 -0.094167
C 0.000457 2.707474 -0.142964
N 2.518230 -0.029155 -0.140227
O 2.596489 -1.014697 -0.854053
O 3.439099 0.500315 0.461857
H 2.159829 2.535814 -0.159392
H -0.012202 3.788860 -0.209350
H -2.132146 2.524973 -0.148143
C 0.147164 -1.611406 0.324444
O 0.851824 -1.950980 1.236593
O -0.532774 -2.473863 -0.420570
H -1.242167 -2.021071 -0.921293
C -2.521500 -0.101264 -0.077946
O -2.743593 -1.074325 -0.759382
O -3.521262 0.455067 0.626072
H -3.180454 1.142178 1.212605
