20
Last coordinate set from file 3NFAACc_opt.log
C -1.298931 2.014828 -0.032590
C -1.231181 0.626221 -0.000189
C -0.018587 -0.071451 0.014133
C 1.160916 0.694646 -0.004761
C 1.094752 2.091573 -0.014045
C -0.124649 2.753148 -0.032146
N -2.521704 -0.097175 0.037241
O -2.498035 -1.294880 0.281280
O -3.536749 0.552298 -0.169711
H -2.273244 2.483453 -0.048486
H -0.162396 3.835950 -0.045178
H 2.030528 2.637011 -0.008715
C 0.033055 -1.580298 0.139298
O 0.258035 -2.146243 1.172120
O -0.148152 -2.176701 -1.049089
H -0.118123 -3.132313 -0.887199
C 2.548068 0.127756 -0.017800
O 3.532491 0.774489 0.242077
O 2.600347 -1.165500 -0.382944
H 3.531018 -1.430123 -0.332373
