   20
 
 C     0.000000     0.000000     0.000000
 C     0.000000     0.000000     1.385806
 C     1.177560     0.000000     2.146014
 C     2.405072    -0.032776     1.460116
 C     2.399326    -0.019387     0.057962
 C     1.218317    -0.005990    -0.668061
 N    -1.315314    -0.086710     2.051566
 O    -2.290224     0.303772     1.429172
 O    -1.345185    -0.581131     3.172116
 H    -0.946995    -0.004372    -0.522680
 H     1.243010    -0.007699    -1.751535
 H     3.360886    -0.008292    -0.439528
 C     1.111685     0.105822     3.645473
 O     1.598493    -0.697963     4.409896
 O     0.535490     1.241936     4.041304
 H     0.509940     1.231534     5.011604
 C     3.803416    -0.037525     2.067999
 O     4.727417     0.420556     1.445906
 O     3.989992    -0.604402     3.259007
 H     3.159418    -0.930982     3.660087
