20
Last coordinate set from file 3NFAACg_opt.log
C 1.241369 2.032293 -0.055984
C 1.219572 0.641998 -0.030000
C 0.033143 -0.098875 -0.023198
C -1.171701 0.632431 -0.035227
C -1.154971 2.030683 -0.067776
C 0.044001 2.731389 -0.081136
N 2.534545 -0.037145 -0.027136
O 2.556815 -1.225033 -0.314321
O 3.516109 0.639051 0.242809
H 2.199741 2.533505 -0.053581
H 0.046169 3.814581 -0.107736
H -2.098030 2.561034 -0.079121
C 0.031747 -1.611066 0.202857
O 0.056583 -2.047699 1.316261
O -0.009138 -2.400710 -0.877752
H -0.016545 -1.871149 -1.683744
C -2.478425 -0.090778 -0.030748
O -2.612769 -1.276987 -0.194680
O -3.525532 0.740132 0.165076
H -4.318108 0.183556 0.142256
