   20
 
 C     0.000000     0.000000     0.000000
 C     0.000000     0.000000     1.391258
 C     1.176621     0.000000     2.144049
 C     2.393065     0.003321     1.435649
 C     2.397033     0.007133     0.037021
 C     1.207936     0.004423    -0.680645
 N    -1.325038     0.011634     2.053073
 O    -1.355487     0.140871     3.267330
 O    -2.310810    -0.101527     1.337938
 H    -0.950411    -0.002691    -0.515478
 H     1.221811     0.007487    -1.764104
 H     3.347297     0.011860    -0.480148
 C     1.164390    -0.105567     3.657631
 O     1.138925    -1.156490     4.234007
 O     1.205493     1.102866     4.233797
 H     1.223424     0.952050     5.191434
 C     3.686810     0.008910     2.181905
 O     3.800185     0.037664     3.381313
 O     4.755889    -0.020160     1.354733
 H     5.536884    -0.014419     1.927408
