20
Last coordinate set from file 4NFAACi_opt.log
C 1.787623 -0.285004 0.034675
C 0.916956 0.788451 0.008314
C -0.467456 0.582235 -0.011155
C -0.939670 -0.749047 -0.031605
C -0.026317 -1.814041 -0.064485
C 1.340267 -1.598069 -0.011580
N 3.243604 -0.026796 0.090521
O 3.608511 1.137415 0.139485
O 3.982213 -1.002010 0.087120
H 1.298796 1.799126 -0.016302
H 2.051372 -2.412542 -0.013651
H -0.415042 -2.822678 -0.129243
C -1.253785 1.884374 -0.140821
O -0.720237 2.856611 -0.607095
O -2.520485 1.937553 0.275062
H -2.808130 1.103633 0.683889
C -2.364889 -1.213566 -0.068639
O -2.772023 -2.110008 -0.753685
O -3.168982 -0.582226 0.837075
H -4.060563 -0.950647 0.729723
