20
Last coordinate set from file 4NFAACg_opt.log
C 1.769951 -0.299012 -0.026804
C 0.914600 0.786245 0.007078
C -0.473403 0.608936 0.010197
C -0.968332 -0.720255 0.004755
C -0.066659 -1.799157 0.001362
C 1.303519 -1.604688 -0.027214
N 3.231845 -0.061854 -0.053294
O 3.615240 1.096774 -0.063637
O 3.954351 -1.049168 -0.064118
H 1.307949 1.792011 0.044618
H 2.000681 -2.430800 -0.045369
H -0.458885 -2.806375 0.012314
C -1.218890 1.952023 0.086583
O -0.614508 2.928058 0.455774
O -2.484437 2.027495 -0.288673
H -2.865776 1.142674 -0.499135
C -2.415471 -1.088141 -0.019510
O -3.335741 -0.388406 -0.401039
O -2.644964 -2.338308 0.402697
H -3.598303 -2.491806 0.313926
