20
Last coordinate set from file 4NFAACf_opt.log
C -1.772135 -0.295412 -0.034466
C -0.896909 0.776465 -0.004698
C 0.485559 0.557332 0.017102
C 0.977436 -0.770070 0.015618
C 0.052475 -1.821719 0.024558
C -1.317047 -1.604841 -0.016094
N -3.223552 -0.027078 -0.080267
O -3.579112 1.143780 -0.070330
O -3.969360 -0.993371 -0.122417
H -1.315873 1.774211 -0.041440
H -2.025880 -2.421789 -0.029996
H 0.448900 -2.827632 0.072461
C 1.352849 1.784819 -0.003790
O 2.390591 1.881480 -0.620235
O 0.904141 2.850425 0.673434
H 0.134523 2.622231 1.209905
C 2.431219 -1.251946 0.071104
O 2.666466 -2.336501 0.542781
O 3.385945 -0.494960 -0.444826
H 3.053135 0.387936 -0.732316
