20
3-methyl-pentane_out_G09_invertion.xyz ---> 3-methyl-pentane_out_G09_invertion_output.xyzMolecule invertion
H    -2.09304       0.054511       0              
H    -1.46737       1.4577         -0.881091      
H    -1.46737       1.4577         0.881091       
C    -1.31133       0.82641        0              
H    -0.649132      0.562111       -2.80033       
H    -0.649132      0.562111       2.80033        
H    -0.431839      -1.46217       -1.31017       
H    -0.431839      -1.46217       1.31017        
C    0.08484        0.184254       0              
C    0.326707       -0.666278      -1.26461       
C    0.326707       -0.666278      1.26461        
C    0.326707       0.113502       -2.58485       
C    0.326707       0.113502       2.58485        
H    0.576127       -0.543933      -3.42578       
H    0.576127       -0.543933      3.42578        
H    0.831258       0.995923       0              
H    1.06783        0.922609       -2.56625       
H    1.06783        0.922609       2.56625        
H    1.29424        -1.17686       -1.15939       
H    1.29424        -1.17686       1.15939        
