23
M1 HEAT OF FORMATION =  19.96377 KCAL =  83.52837 KJ
C                1.5013      1.4290     -1.0379
C                1.6834      0.9841      0.3970
H                2.6957      1.0302      0.7890
C                0.7960     -0.0611      1.0226
H                2.3872      1.7382     -1.5772
C                0.4404      0.8465     -1.8841
O                1.0816      2.2495      0.0624
C               -0.8506     -2.0280      2.2083
C                0.8993     -1.4148      0.6601
C               -0.1533      0.2748      2.0023
C               -0.9700     -0.6949      2.5894
C                0.0843     -2.3890      1.2428
H                1.6196     -1.7177     -0.0981
H               -0.2611      1.3140      2.3086
H               -1.6989     -0.4061      3.3421
H                0.1799     -3.4281      0.9385
H               -1.4860     -2.7839      2.6618
O                0.6417     -0.1646     -2.5433
O               -0.7099      1.5716     -1.8673
C               -1.7575      1.0102     -2.6555
H               -1.4729      0.9902     -3.7121
H               -2.6413      1.6450     -2.5471
H               -2.0089      0.0050     -2.3023
