   24
FINAL HEAT OF FORMATION =     0.000000
 C    -2.963800     0.783500     0.482300
 C    -1.943500    -0.155500    -0.161900
 C    -0.498000     0.233100     0.200800
 C     0.598400    -0.644700    -0.421600
 C     2.033000    -0.242100    -0.084700
 C     2.495100     1.123400    -0.556000
 O     3.834600     1.351900    -0.166700
 O    -0.350800     0.285200     1.616800
 O    -2.206717    -1.494871     0.255357
 O     0.399900    -1.983200     0.016300
 O    -2.842996     0.691205     1.898184
 O     2.791700    -1.002600     0.518400
 H    -0.356589     1.284234    -0.082120
 H    -2.095587    -0.114635    -1.246238
 H     0.512800    -0.649200    -1.513500
 H    -2.791637     1.826230     0.201990
 H    -3.986694     0.497570     0.215704
 H    -0.771700     1.102600     1.932000
 H     2.438100     1.162300    -1.646800
 H     1.869600     1.907000    -0.122800
 H    -1.567983    -2.077637    -0.189622
 H     0.408700    -1.981700     0.989000
 H    -3.504979     1.292233     2.280295
 H     3.853700     1.393700     0.804700
